! pbe def2-sv(p) def2/J RI DEFGRID1 loosescf d4 GCP(DFT/SV(P)) printgap
%output
    printlevel normal
end
* xyz 0 1
C -2.4275866967 -1.0942833453 -0.3267614454
C -1.0776517045 -0.597477068 0.2102263511
H -1.1259767937 -0.5704138573 1.3098850182
C -0.7421345154 0.8113596531 -0.3022252678
H -0.7293251079 0.7841550151 -1.4057770602
C 0.6533504668 1.2333506714 0.1955499236
H 0.6386760904 1.3085493381 1.2893158742
C 1.6763121684 0.1718768175 -0.2134148315
H 1.7394233321 0.13592527 -1.3148826869
C 1.1959557537 -1.2109152369 0.288054652
H 1.1930070176 -1.1971795764 1.3920657873
O -0.083499043 -1.5111078634 -0.2099019607
O 2.0666361943 -2.2118957193 -0.1037543941
O 2.9280295484 0.4877858305 0.3355417337
O 0.9603806801 2.5267695189 -0.2596395713
O -1.7264518466 1.7099299791 0.1398112734
O -3.5143440431 -0.4927804505 0.3207558599
H -2.5025446323 -2.1672890003 -0.1383810186
H -2.4691932796 -0.9236648028 -1.4107714594
H 1.7867701828 -2.5555803366 -0.9670955277
H 3.5075237504 -0.286902307 0.2627406804
H 1.3112526683 2.4924257675 -1.1612142199
H -1.3643419814 2.6096619054 0.089996735
H -3.396772148 0.4712090709 0.2876810537
*
