! wb97x-v def2-tzvp def2/J RIJCOSX DEFGRID2 scfconv7 GCP(DFT/TZ) printgap
%output
    printlevel normal
end
* xyz 0 1
C -2.57687866255138 -0.8640608848564489 0.3447477688433951
C -1.1472193794170256 -0.421993260884071 0.5931493720880424
H -0.9912753841099414 -0.36326630592762027 1.6835412886550092
C -0.7994414393610413 0.9250532123325462 -0.037852455499163974
H -0.9815724123727233 0.8690806988944763 -1.12258001408873
C 0.6735469866502275 1.2520680812336644 0.19725265924319704
H 0.8389169559533449 1.391436307682311 1.2736560636561156
C 1.555197225642402 0.1127111475513774 -0.29482171477658026
H 1.461338832426412 0.01633418780542167 -1.3886118225178818
C 1.0910497701775577 -1.197078085882209 0.3398346820398983
H 1.2139054433371874 -1.1589617664041842 1.4350718678386551
O -0.28783364857172183 -1.4285761570298487 0.02867690430292427
O 1.8392868412105499 -2.2447376258144476 -0.21836629036807953
O 2.902639033564057 0.40600468386166255 0.07567218873484387
O 1.018833293735514 2.5043762048378126 -0.4062177491625629
O -1.639585022178376 1.9166742618010917 0.5581549550366464
O -2.9195823031300967 -0.9091660648799297 -1.0451076103046628
H -3.259114346659289 -0.151594141032498 0.8151575199531984
H -2.727065297286639 -1.8459711256313727 0.8139297447361162
H 1.8030738719898907 -2.999234122567219 0.38488747318118793
H 3.4650859579439564 -0.2753068411063359 -0.3169406808277235
H 0.9232079229819927 2.4044994611228137 -1.3652292774931445
H -1.3265629828585939 2.7758531396889676 0.24132681709716736
H -2.3587448013632346 -1.5782884716283028 -1.4594796319267425
*
