  13
        -16.70932239
 C         -1.0377788640       -0.7350826226       -0.2199245278
 C         -1.0423549118        0.7262889323        0.2251905956
 C          0.3771833732        1.1585453134       -0.1395635324
 O          1.2067667866        0.0073341263        0.0077335938
 C          0.3900630639       -1.1571963132        0.1270131378
 H         -1.1987950759       -0.8020250957       -1.2958753403
 H         -1.7782868873       -1.3423490181        0.2927382219
 H         -1.7945975863        1.3263781639       -0.2787600935
 H         -1.1897619314        0.7924810664        1.3031150863
 H          0.4310377315        1.4956775632       -1.1831877858
 H          0.7733944915        1.9450769508        0.5065440494
 H          0.7900387504       -1.9231775737       -0.5415331680
 H          0.4560425376       -1.5197675048        1.1610017851
