! pbe def2-sv(p) def2/J RI DEFGRID1 loosescf d4 GCP(DFT/SV(P)) printgap
%output
    printlevel normal
end
* xyz 0 1
C -3.1842566882 -0.3313185408 0.0016782459
O -2.0887826761 0.5640969722 -0.0012517853
C -0.8239385468 0.049072946 -0.0007173111
C -0.5142107576 -1.3050173161 -0.0002682457
C 0.8160531021 -1.6959067187 0.0003035679
C 1.8362235003 -0.7687378547 0.0004460321
C 1.5259916653 0.5904775812 -5.62987e-05
C 0.2010927252 0.9938788361 -0.0006932712
O 2.5518269768 1.4811256276 0.0002693189
H -4.0695267245 0.3005423701 0.0023890201
H -3.1789642499 -0.9583958127 0.8969503117
H -3.1820481756 -0.9606763629 -0.8919480526
H -1.2868641866 -2.0554261188 -0.0004273973
H 1.0546761135 -2.748185689 0.000488053
H 2.8717995482 -1.0668581128 0.0009219903
H -0.0692157925 2.0388793377 -0.0010617333
H 2.2144271333 2.3897189623 2.8442e-05
*
