! pbe def2-sv(p) def2/J RI DEFGRID1 loosescf d4 GCP(DFT/SV(P)) printgap
%output
    printlevel normal
end
* xyz 0 1
C -2.1115931692 -0.002522899 -0.3297692231
C -0.8028886906 -0.0676727521 0.4495487115
C 0.0946091258 -1.2251908549 -0.0241696518
C 1.5174147459 -0.6819569026 0.0697108992
C 1.3520380841 0.7619486704 -0.3932559136
C 0.0524476625 1.2088698852 0.2821264276
H -1.9161362402 0.1697409142 -1.3860476268
H -2.6597745054 -0.9367744473 -0.2284685367
H -2.7384079722 0.8049938778 0.0421088643
H -1.0417275048 -0.206420896 1.5081203349
H -0.0501034623 -2.126262461 0.5701583874
H -0.1346770558 -1.4637468142 -1.0642306925
H 1.8608624288 -0.7038751195 1.1053136371
H 2.2222632482 -1.2440001685 -0.5413693916
H 2.1978714662 1.3922735446 -0.1226605459
H 1.2397966115 0.7858862646 -1.4783116188
H 0.2720899247 1.6438865515 1.2575745812
H -0.4679071299 1.9620544939 -0.3079767581
*
