! pbe def2-sv(p) def2/J RI DEFGRID1 loosescf d4 GCP(DFT/SV(P)) printgap
%output
    printlevel normal
end
* xyz 0 1
C -2.2260412362 -0.6133456321 -0.7033025353
C -1.3814164768 -0.4725603941 0.5807248284
H -2.0412641626 -0.7103133663 1.426897514
C -0.8608392785 0.9523676836 0.8168122866
H -1.6744844108 1.6460647768 0.5617931866
C 0.3458029742 1.3207806253 -0.072599392
H 1.0134353866 1.9713528834 0.5109821161
C 1.1676384669 0.0837645653 -0.4595925592
H 0.802714328 -0.3225055464 -1.4162117006
C 0.9693385363 -1.0102685207 0.6027865411
H 1.2519841918 -0.6137035418 1.5974123873
O -0.3549113052 -1.4629368625 0.6097408105
O 1.7863172853 -2.096965458 0.303963303
O 2.5183376309 0.4606304797 -0.5635672423
O -0.1460220994 2.0148989551 -1.1964194575
O -0.54367901 1.0500807668 2.1863925532
O -1.570238611 -0.2883111362 -1.8993760186
H -3.1323906525 -0.0070074915 -0.5790222118
H -2.510442763 -1.6634163765 -0.7988521984
H 1.2283862954 -2.8872801674 0.2442749864
H 3.0588911607 -0.3427840268 -0.6043568417
H 0.5997879548 2.3110331161 -1.7385074545
H -0.4465396723 1.9794256113 2.4407332212
H -1.3128949115 0.6529554125 -1.8817159659
*
