! wb97x-v def2-tzvp def2/J RIJCOSX DEFGRID2 scfconv7 GCP(DFT/TZ) printgap
%output
    printlevel normal
end
%cpcm
    smd true
    smdsolvent "water"
end
* xyz 0 1
C -1.8323151780891185 -1.346406337982001 -2.209519942467017e-06
C -0.494266068283742 -1.7064933034644634 3.764975439113585e-05
C 0.5012409954287147 -0.7328548227289278 4.2800926626552585e-05
C 0.14031420826485116 0.6141837463451904 7.224314627439733e-06
C -1.197743853751786 0.9902945226297674 -3.103089065659881e-05
C -2.182021004221233 0.0038442964257002967 -3.5994980062796396e-05
O -3.516059787754503 0.3130804658615189 -8.069384168727417e-05
Cl 1.356934979086304 1.869606694400122 1.1379106199735862e-05
Cl 2.179303471835387 -1.225487393635444 8.25221399065005e-05
H -2.606180467021372 -2.1056158469284854 -9.959591994019885e-06
H -0.21526005796505981 -2.7540294687961455 5.991104368235955e-05
H -1.472891334343017 2.0398069094817477 -6.157262709262185e-05
H -3.6263613070565075 1.2749325460844387 -0.00013488072089718706
*
