  11
        -14.07944692
 C         -3.2100349221       -0.0464230791        0.0000120153
 C         -1.7879382488        0.5048128010       -0.0000150509
 C         -0.7877763933       -0.6349468180       -0.0000121785
 Br         1.0678064380        0.0365167606        0.0000017444
 H         -3.3840661308       -0.6567717465        0.8826829489
 H         -3.9235458127        0.7721416122        0.0000339750
 H         -3.3841091469       -0.6567846610       -0.8826527840
 H         -1.6315603477        1.1281871796        0.8827828021
 H         -1.6315677508        1.1282187813       -0.8827958509
 H         -0.8754357903       -1.2529820753       -0.8919771017
 H         -0.8753915529       -1.2529656428        0.8919690156
  11
        -14.07935733
 C         -2.4845959796        0.2167537377        0.3928700974
 C         -1.7730872942        0.0402209224       -0.9422761990
 C         -0.5180071082       -0.8020537041       -0.8262750654
 Br         0.8781767738        0.0994805611        0.2438770559
 H         -2.7661964429       -0.7486161528        0.8076354861
 H         -1.8373394624        0.7231589983        1.1061942671
 H         -3.3829645634        0.8134294140        0.2640029887
 H         -1.5214462598        1.0173418110       -1.3596702337
 H         -2.4356147737       -0.4669588619       -1.6477212895
 H         -0.0581774312       -0.9849462223       -1.7954987946
 H         -0.7072088109       -1.7444107223       -0.3152878050
