  6
         -7.41298440
 C          1.2369183099       -0.0097476837       -0.0000004769
 S         -0.5877765750        0.0437263650       -0.0000001337
 H          1.5693462378        1.0230130546       -0.0000271320
 H          1.5816955911       -0.5141430762       -0.8960376428
 H          1.5817188310       -0.5140791039        0.8960609774
 H         -0.7735678474       -1.2696671429        0.0000137345
