! pbe def2-sv(p) def2/J RI DEFGRID1 loosescf d4 GCP(DFT/SV(P)) printgap
%output
    printlevel normal
end
* xyz 0 1
C -2.3578619522 -1.0029005156 0.3499080551
C -1.0852782302 -0.2550090216 0.7933213182
H -1.3112162474 0.2102717785 1.7611061584
C -0.671933184 0.8631888162 -0.1689444547
H -0.6664814061 0.5084186092 -1.2102694712
C 0.7591487452 1.2943591432 0.1802836037
H 0.7887213188 1.5550047655 1.2509555048
C 1.7318673888 0.1271764926 -0.0785405309
H 2.0894352628 0.1852539799 -1.1117873747
C 0.9927261031 -1.2225530658 0.0717327349
H 1.6979390726 -1.9741986146 0.4660182329
O -0.0149826716 -1.1678873874 1.0445398392
O 0.5284816055 -1.6004483936 -1.1850646058
O 2.8741617875 0.2058007276 0.7331261519
O 1.0592041635 2.4274109398 -0.5982667787
O -1.5869180763 1.917373279 -0.0176815372
O -2.2396356944 -1.6757328126 -0.8809186293
H -3.1797781211 -0.2817122397 0.3349445604
H -2.5651690441 -1.7758576308 1.0933305023
H -0.2340249948 -2.202809461 -1.0868617245
H 2.6322776956 0.0538414757 1.6587102959
H 1.9686383308 2.7071895292 -0.4240359229
H -1.2103512576 2.7013010272 -0.4478244075
H -2.3333237248 -1.0449597932 -1.607679233
*
