! wb97x-v def2-tzvp def2/J RIJCOSX DEFGRID2 scfconv7 GCP(DFT/TZ) printgap
%output
    printlevel normal
end
%cpcm
    smd true
    smdsolvent "water"
end
* xyz 0 1
C -2.6383293504490917 1.497618821704562 0.2389731453220087
C -1.9630203094107799 0.1554488105134606 -0.016698319052749
C -0.45508241957717577 0.16802707822472024 0.036312241158715654
C 0.29832820664766807 1.3130241965779885 0.29673283658832167
C 1.6933600588955091 1.2829899648155423 0.33377618581509416
C 2.3628429564100744 0.08534441996919365 0.10684123075278174
C 1.63893390749704 -1.0754785062696246 -0.15469639760190945
C 0.24787166179200035 -1.027881703623427 -0.18824695932579397
O -0.5051132393633204 -2.15365684665715 -0.44550183802689225
H -2.3426746236455127 2.2470815874485477 -0.5028243485079738
H -2.3955477255716517 1.8894556690907653 1.232392492986631
H -3.7245015872523792 1.3831779068816348 0.18265674749789182
H -2.2726381058313634 -0.22864308390429897 -0.9984734430180304
H -2.3311611299252366 -0.5835686744316327 0.7080004804249915
H -0.2127317405559948 2.2532202987080163 0.4752854329981023
H 2.248709396283743 2.1925058262518804 0.5385760918191755
H 3.447357009984234 0.04607845061400841 0.1309631446349938
H 2.1469409647827193 -2.0196636878259175 -0.33451278441846205
H 0.09054256599916408 -2.903464145506107 -0.5831802095252366
*
