! pbe def2-sv(p) def2/J RI DEFGRID1 loosescf d4 GCP(DFT/SV(P)) printgap
%output
    printlevel normal
end
* xyz 0 1
C -2.5652024387 -0.6399774127 -0.3377532294
C -1.1819965191 -0.293098016 0.2229862219
H -1.2414089479 -0.2357705758 1.3210981983
C -0.6993098911 1.0618484036 -0.3098992776
H -0.6904580499 1.0300004201 -1.4108845034
C 0.7340189852 1.3277885492 0.1676892216
H 0.7322847659 1.4374256538 1.264177521
C 1.6352845991 0.1459209997 -0.1961250002
H 1.7019751657 0.0635071359 -1.2913410295
C 1.0157511402 -1.1564011759 0.3352798102
H 0.989218789 -1.1080185754 1.444961157
O -0.2942597269 -1.3325061853 -0.1515980603
O 1.7994754639 -2.2032810383 -0.1054897723
O 2.9002652734 0.3786941024 0.3670025216
O 1.1698027919 2.5205428317 -0.4351944533
O -1.5802372628 2.0527484733 0.145163768
O -3.1322019821 -1.7642029011 0.2789548833
H -2.4743003421 -0.789922796 -1.4201406609
H -3.2341768148 0.1984013008 -0.1398682304
H 1.3709893832 -3.0510677829 0.0887252099
H 3.4729140065 -0.3804416752 0.1821153542
H 2.1032841462 2.6554097836 -0.2144785308
H -1.2152889297 2.9173424843 -0.1005914942
H -2.5626269056 -2.5285276364 0.1113298936
*
