! wb97x-v def2-tzvp def2/J RIJCOSX DEFGRID2 scfconv7 GCP(DFT/TZ) printgap
%output
    printlevel normal
end
%cpcm
    smd true
    smdsolvent "water"
end
* xyz 0 1
C -3.3340307561165017 0.7666187884270745 -0.11153472896223852
C -2.479882701210817 -0.4824154110278476 0.08218022720558281
C -0.9838994351602421 -0.26297597446817444 0.037598209697289595
C -0.39389642420402754 0.9848792471850092 0.25100706990955735
C 0.9907998073212667 1.148449777755106 0.23165493594113373
C 1.8122358060028392 0.04977746892019629 -0.004742873228097314
C 1.2493048721115676 -1.2069664064942938 -0.22453710466063997
C -0.13248983035738707 -1.3492393914054188 -0.20301723470154862
O 3.1885353712963345 0.14885424608692455 -0.038737319606371515
H -4.393737819865492 0.49586206407106764 -0.14048210463175098
H -3.089521757328343 1.2741024721093328 -1.0509999002237493
H -3.2016400639208014 1.4835894133158587 0.7045435144477087
H -2.73938414392173 -1.2241966740575798 -0.6822983937224631
H -2.739575622040207 -0.9465946509098889 1.0436833135846881
H -1.0127345405789485 1.856935739835926 0.4354933315397166
H 1.4319207023357983 2.1279974629315888 0.39779352765527276
H 1.8954114247252667 -2.0581280205435277 -0.4160949637320276
H -0.5630747529310887 -2.331929944326137 -0.3793593612024381
H 3.4407426920506277 1.0687699930175845 0.12186815371499155
*
