! pbe def2-sv(p) def2/J RI DEFGRID1 loosescf d4 GCP(DFT/SV(P)) printgap
%output
    printlevel normal
end
* xyz 0 1
C -2.9208106948 -0.0361463784 0.0043886623
O -1.6604273274 0.6505402642 0.0005686304
C -0.5450943616 -0.0565758342 -0.0041776608
O -0.4861442471 -1.2630764297 -0.0057629508
C 0.6481077795 0.8783746832 -0.0079336497
Cl 2.1626139243 -0.0589668568 0.0052787207
H -2.7638153785 -1.1057083948 -0.1340468973
H -3.5117305681 0.3772096821 -0.8095434136
H -3.4045956135 0.1555045469 0.9604667037
H 0.6287928745 1.5126654161 0.8778056752
H 0.6348522338 1.4954898455 -0.9058785902
*
