! wb97x-v def2-tzvp def2/J RIJCOSX DEFGRID2 scfconv7 GCP(DFT/TZ) printgap
%output
    printlevel normal
end
%cpcm
    smd true
    smdsolvent "water"
end
* xyz 0 1
C 1.9467689697995758 -0.1411973164452367 -0.9832235780816401
O 1.1175184683851733 -0.31571676366053625 0.20913207761027458
S -0.4828534949624809 -0.0587500987175126 0.03458961840201786
O -1.0604797129981323 -0.5923788648591353 1.2741751645172428
O -0.9311540546472423 -0.5994412249054603 -1.2585484829503117
C -0.6263722933543553 1.7239418960835402 0.01659253504712672
H 1.6637544981877077 -0.8661254885289017 -1.7483480912394525
H 2.961966272841298 -0.3334686436375476 -0.6367978628585271
H 1.8715750063679941 0.8816018929695052 -1.3614644806671883
H -0.21004962593722587 2.1110477836631287 0.9487701664570183
H -0.09283288935059757 2.114439812331636 -0.85296062844957
H -1.6930462527094534 1.9527878456617194 -0.059345065925725166
*
