! pbe def2-sv(p) def2/J RI DEFGRID1 loosescf d4 GCP(DFT/SV(P)) printgap
%output
    printlevel normal
end
* xyz 0 1
C 1.4756628927 0.1268416752 1.1664493275
C 0.722001206 -0.1523968634 -0.1008598082
C 1.3239211779 -0.6664325583 -1.168295437
C -0.7220102127 0.1523756337 -0.1008509262
C -1.3239324892 0.6664140996 -1.1682751802
C -1.4756550736 -0.1268372243 1.166479863
H 1.2964992351 1.1489593809 1.4956559724
H 2.5423151634 -0.0110325665 1.0115118641
H 1.1518198851 -0.5455798162 1.9587908175
H 0.7839140847 -0.9001911534 -2.0694991778
H 2.3786543258 -0.8845368168 -1.1730576639
H -2.3785933988 0.8848198001 -1.1729652866
H -0.7838684027 0.9003179731 -2.0693984172
H -1.2964837602 -1.1489448645 1.4956963174
H -1.1517927537 0.5455730218 1.9588209664
H -2.5423154317 0.0110349619 1.0115969104
*
