! wb97x-v def2-tzvp def2/J RIJCOSX DEFGRID2 scfconv7 GCP(DFT/TZ) printgap
%output
    printlevel normal
end
%cpcm
    smd true
    smdsolvent "water"
end
* xyz 0 1
C -3.3138435823906915 -0.5649575137210989 1.7411123870618976
N -2.320079946590886 -0.025460708820122475 0.8187723846735054
C -2.35282793327868 -0.3486149804123729 -0.4789839462904063
O -3.2263814107134716 -1.0125815884712244 -1.0258143116517497
O -1.3310963506590545 0.13966133532083602 -1.278012005233732
C -0.21026576143932202 0.7415905931117711 -0.6873856512844767
C -0.15744452599549444 2.1078699391019997 -0.5924676759183988
C 0.9949914215497206 2.7193117268061964 -0.05559257374571575
C 2.0557636196233533 1.956215702017079 0.36931018722377534
C 2.015625621206004 0.5432872993673132 0.2755211045994184
C 0.8553561417004139 -0.0941439306205857 -0.27022722797048293
C 0.8144297037634759 -1.505328311560406 -0.36746513675631914
C 1.8818302844763206 -2.2582385421444893 0.06239043376346183
C 3.0288956287387343 -1.6368563288374345 0.6016332858307896
C 3.0944953727849445 -0.2678764292442264 0.7046626498020265
H -3.1484352567370455 -0.11409159764065582 2.7199086121253835
H -3.224961975620018 -1.6523372044197269 1.830014848136154
H -4.323821099176339 -0.31762380963570735 1.4047644267617347
H -1.5323768840596597 0.4862334229096286 1.1882629647791263
H -1.0004870841689817 2.7021914081025105 -0.9287346521580788
H 1.0334205551264584 3.800957432135413 0.01800612783830053
H 2.9426250012388775 2.425714297131337 0.7840801232207529
H -0.06319186721895427 -1.9881791697686697 -0.7844439673137871
H 1.8450872624623988 -3.3400953668103575 -0.01485607126381262
H 3.862069984801806 -2.2476810720615448 0.9341912224364846
H 3.9754834477424934 0.21497617058389762 1.1173792178306539
*
