! pbe def2-sv(p) def2/J RI DEFGRID1 loosescf d4 GCP(DFT/SV(P)) printgap
%output
    printlevel normal
end
* xyz 0 1
C -2.4499945573 -1.0142380773 -0.3846431592
C -1.0852190178 -0.5469934264 0.1302663432
H -1.1350142743 -0.5384201657 1.2326800635
C -0.7234315404 0.8683073722 -0.3626108658
H -0.6513803919 0.8606786695 -1.4559434791
C 0.6532029397 1.2528463655 0.2040442173
H 0.5914635538 1.313580651 1.3040749222
C 1.6791322567 0.169988219 -0.1549907021
H 1.821279976 0.1609857237 -1.2457366036
C 1.1643973673 -1.2175664164 0.2607375445
H 1.0984925976 -1.2513511134 1.3703576386
O -0.1069886181 -1.4794560383 -0.2851169444
O 2.0519638682 -2.1616295161 -0.2153674687
O 2.8787793622 0.4849517626 0.504726035
O 1.0312070612 2.4975137079 -0.3231513418
O -1.7192909499 1.8024713025 -0.0664698665
O -3.4162806091 -0.6773209636 0.5815390024
H -2.3970864466 -2.1010609705 -0.5276099987
H -2.6631299951 -0.5324893462 -1.3441355867
H 1.6520821319 -3.0437665173 -0.1637617752
H 3.5395466999 -0.1931854138 0.3003551557
H 1.9374885155 2.6879548748 -0.036116399
H -1.833747594 1.8756785644 0.8923517844
H -4.2999873708 -0.8329777983 0.2204687684
*
