! r2scan-3c def2/J RI DEFGRID2 scfconv6 printgap
%output
    printlevel normal
end
* xyz 0 1
C -3.4319940684 0.5924895543 0.1508489861
C -1.9358024675 0.481384632 0.1167479692
C -1.148091866 1.5191084441 -0.1315516557
C 0.3463739464 1.4704858246 -0.1619404632
C 0.8547982997 0.0321401878 -0.2747971814
H 0.57720743 -0.3574668816 -1.2600358729
C 0.1121177252 -0.8223699963 0.7585773494
C -1.3675240585 -0.8966793357 0.3843832537
H -1.9249255779 -1.3567591157 1.219209445
O -1.4775342342 -1.7479917101 -0.7530971468
C 2.3503854237 -0.0854158251 -0.124427281
C 3.0738218207 -0.7350111407 -1.0238841428
C 2.9815644705 0.544082656 1.0812637236
H -3.7415799504 1.6244840813 0.0117947158
H -3.8137981755 0.2361623638 1.107063793
H -3.8872944677 -0.0089395557 -0.6352933285
H -1.5872225733 2.4931352299 -0.3055545544
H 0.7164198182 2.0646903179 -1.000795338
H 0.7208046439 1.9315002208 0.7566290693
H 0.5194510717 -1.8344034477 0.7708225622
H 0.2028780876 -0.38799462 1.754330082
H -2.4002708139 -1.7786697916 -1.036452709
H 4.1405193568 -0.8487659668 -0.9243989958
H 2.6285663023 -1.1837001467 -1.896071173
H 3.0068038793 1.6274467708 0.9721280045
H 2.4190633208 0.3064339025 1.9809665389
H 4.0025803244 0.1924975831 1.2021260299
*
