! pbe def2-sv(p) def2/J RI DEFGRID1 loosescf d4 GCP(DFT/SV(P)) printgap
%output
    printlevel normal
end
* xyz 0 1
C 0.5319929884 0.8894016652 -1.2592615932
C 0.4079333292 0.0225424433 -3.3685e-06
C 0.5308268127 0.8936950179 1.256385362
C 1.5037829448 -1.0480751097 0.002329958
O -0.8108927305 -0.7393347833 0.0005215042
C -2.0294808903 -0.0300418895 5.36174e-05
H 1.5388530234 1.290155475 -1.324119467
H 0.3346939823 0.2875035983 -2.1433634637
H -0.1671325565 1.7217030282 -1.2356290755
H 0.3341187459 0.2945646647 2.1424917772
H -0.1691490686 1.7251961105 1.229845917
H 1.5372712138 1.295679103 1.3198820367
H 1.4002952914 -1.6739033427 0.8842450444
H 1.4006566541 -1.6773830001 -0.8771497902
H 2.4856021918 -0.5860232184 0.0016300587
H -2.1399749027 0.5919928612 -0.8927896061
H -2.1409649439 0.5914013495 0.893189111
H -2.804249463 -0.7944666844 -0.0005998489
*
