! wb97x-v def2-tzvp def2/J RIJCOSX DEFGRID2 scfconv7 GCP(DFT/TZ) printgap
%output
    printlevel normal
end
* xyz 0 1
C -2.224261782931434 0.4227937565798976 -7.754422422693556e-05
C -1.206531457256509 -0.6861155324839767 8.074146486863766e-05
Br 0.6576853719041499 0.04137240138635886 0.00012161037326206376
H -2.137719222921857 1.0512808580750101 -0.8896945671430629
H -3.222160955848485 -0.03295836797889998 -0.0002018959152705614
H -2.1379464580461507 1.051311049053132 0.8895404578444367
H -1.2572343574820783 -1.3084996898372732 -0.8923863015707636
H -1.257336849548199 -1.3083531253509388 0.8926454976818939
*
