! r2scan-3c def2/J RI DEFGRID2 scfconv6 printgap
%output
    printlevel normal
end
%cpcm
    smd true
    smdsolvent "water"
end
* xyz 0 1
C -2.9129224418 -0.0009313558 -0.0159564907
C -1.4129909679 0.0015127117 0.0070580634
C -0.6963826263 1.1917480284 0.0077155055
C 0.684083947 1.1974483683 0.0105030229
C 1.4013001836 -0.0002397927 0.0096645609
C 0.6826582584 -1.1973306065 0.0104674095
C -0.6974489387 -1.1899348267 0.0076675584
N 2.7787015938 -0.001257506 -0.0624365716
H -3.3073053463 0.9198584089 0.407094565
H -3.2727516455 -0.0838083601 -1.0420680641
H -3.3060606699 -0.8449193983 0.5465395868
H -1.2288135325 2.1327622359 0.0104406644
H 1.2203419167 2.1358459264 0.0128830882
H 1.2178183883 -2.1363698397 0.0131264446
H -1.231601798 -2.1299772449 0.010770617
H 3.2331984177 -0.8492808451 0.2337764565
H 3.2348132638 0.8462831951 0.2327630151
*
