! pbe def2-sv(p) def2/J RI DEFGRID1 loosescf d4 GCP(DFT/SV(P)) printgap
%output
    printlevel normal
end
* xyz 0 1
C -2.4837730101 -0.4837553231 -0.2094081842
C -1.0479463979 -0.2038527444 0.2425410228
H -0.9734461106 -0.3793902922 1.3277201426
C -0.6338245292 1.2547897598 -0.0516994177
H -1.2322109366 1.6373565022 -0.8859031759
C 0.8603795249 1.3158483974 -0.4478217978
H 1.2318215385 2.3152149583 -0.173174879
C 1.6509953454 0.2854712328 0.3706508479
H 2.6905491847 0.2939496078 0.0241596618
C 1.103002044 -1.1376332035 0.0994762125
H 1.0783474381 -1.6815580869 1.0731148625
O -0.1993103144 -1.1241862128 -0.4272915461
O 1.9396440846 -1.7845173844 -0.7898753543
O 1.5364258997 0.6458932873 1.7246759365
O 1.0854600957 1.0505388933 -1.8047858101
O -0.9149434307 2.101278818 1.0304507865
O -2.9564887209 -1.7297073216 0.2320758138
H -2.5250896258 -0.4170420816 -1.3034345654
H -3.1408743498 0.2694929728 0.2285246504
H 1.4240571195 -2.4233023421 -1.3056050945
H 2.2504799115 0.2458973246 2.2402844894
H 0.6869747729 1.7474520556 -2.3456796452
H -0.3231058535 1.8739917605 1.7658323136
H -2.3900849308 -2.4215034683 -0.1387680177
*
