! r2scan-3c def2/J RI DEFGRID2 scfconv6 printgap
%output
    printlevel normal
end
%cpcm
    smd true
    smdsolvent "water"
end
* xyz 0 1
C 2.7596249834 0.0022339417 0.7332962828
C 1.9900429146 -0.0027779019 -0.5903437888
C 0.5141173304 -0.00135612 -0.3294995712
C -0.1934199393 1.187045807 -0.1811000263
C -1.5477293414 1.1326585406 0.1008990221
N -2.2229865836 0.0014295022 0.2421264199
C -1.5496439894 -1.1312135168 0.1027249412
C -0.1954580977 -1.1883241551 -0.1791313014
H 2.5087712159 0.8867009945 1.3142817777
H 3.8297805918 0.0007242618 0.5452556415
H 2.5074722838 -0.8769211686 1.3218258715
H 2.2620022135 -0.8912801633 -1.1621916512
H 2.2623885089 0.881121074 -1.1691099074
H 0.3028783442 2.1393813866 -0.28687712
H -2.1296105604 2.0370171221 0.2205691548
H -2.1330616034 -2.034360131 0.2239961147
H 0.299416688 -2.1415923112 -0.2832376558
*
