! wb97x-v def2-tzvp def2/J RIJCOSX DEFGRID2 scfconv7 GCP(DFT/TZ) printgap
%output
    printlevel normal
end
%cpcm
    smd true
    smdsolvent "water"
end
* xyz 0 1
C 1.5658111953269194 -0.019710562655409103 0.5710095678129791
C 0.6798680161313996 0.3525038284525086 -0.6158120491357624
C -0.6798841184307594 -0.3524993729996752 -0.6158381784220939
C -1.5658235427362959 0.019701276122967393 0.5709901133002037
H 2.5460727736484494 0.4626227476552976 0.4975068464923283
H 1.1203262343701277 0.2867625512523578 1.5228964300582633
H 1.7286099306293359 -1.1032003299128827 0.6117127201198697
H 0.520221137874986 1.4392093946626787 -0.6273003352928797
H 1.2064612966863004 0.10641343224087085 -1.5463881720764008
H -1.2064679662954625 -0.10639201098557112 -1.54641599830035
H -0.5202327516611079 -1.4392037970766172 -0.6273440459240432
H -2.546078707840896 -0.46264237699197247 0.4974728436275881
H -1.7286367659506965 1.1031895588674516 0.6117067266089014
H -1.1203449171521744 -0.2867782550839132 1.5228790705704844
*
