! wb97x-v def2-tzvp def2/J RIJCOSX DEFGRID2 scfconv7 GCP(DFT/TZ) printgap
%output
    printlevel normal
end
* xyz 0 1
C 2.130825114661241 -2.1054363540600636 0.36965361917946293
C 1.1751044619603352 -0.9769439337843349 0.13460803342037864
C 1.4980377607318554 0.29131153759713163 0.4796477486675821
C 0.6348706538059892 1.4146673967602768 0.18402313720626529
O 0.9320068257800272 2.5709527755537196 0.5308467557377413
C -0.6101565561124013 1.1410979733539341 -0.6208141408940641
C -1.2245990344323223 -0.23826392686867048 -0.3403692535768586
C -0.13017670674418572 -1.301813364897288 -0.5198404669162746
C -2.3650368034908444 -0.5040918833928607 -1.3233988926427
C -1.7740448202298693 -0.2826026622372628 1.091210827166573
H 3.0446917167149996 -1.9580925123028396 -0.21661028942165877
H 1.6963663897148566 -3.069313182024248 0.09735882744963183
H 2.4329890488188908 -2.140567012259233 1.4219732907997822
H 2.4426952083232245 0.5085520160495853 0.9736824158986587
H -1.3340350482450738 1.943757280384216 -0.4455785068375988
H -0.3091434823714814 1.193359117502028 -1.6786974948939413
H -0.48292106264364904 -2.273275599487344 -0.1505534780638662
H 0.07406296355630998 -1.4513224697966238 -1.5931954100671546
H -3.1624332277392044 0.23686855329768747 -1.198906445136883
H -2.79585635252694 -1.4975367610721293 -1.1544437351683927
H -2.0112255210914514 -0.456169004198147 -2.3590377744576485
H -0.9899539119511147 -0.11201156901066707 1.8364967464317083
H -2.2286123806837663 -1.2579753850689255 1.2953045938124306
H -2.5423521130832225 0.48624061288135884 1.2273049256920314
*
