! pbe def2-sv(p) def2/J RI DEFGRID1 loosescf d4 GCP(DFT/SV(P)) printgap
%output
    printlevel normal
end
* xyz 0 1
C -2.4871013867 -1.0622436806 0.3447255171
C -1.0578915102 -0.5572492693 0.5834384863
H -0.8705763644 -0.5075884479 1.6673993814
C -0.8174728803 0.8336915429 -0.0274413516
H -0.9774045791 0.7637176589 -1.1115035547
C 0.6355764181 1.2669813075 0.2162445256
H 0.7895545628 1.4160226635 1.2961045624
C 1.6039390643 0.1852652138 -0.2662595849
H 1.5776028614 0.17421905 -1.3664409487
C 1.1836513563 -1.2010361211 0.2736746547
H 1.3649497902 -1.2089030057 1.3634310028
O -0.1632376969 -1.486920393 4.03053e-05
O 1.9613112713 -2.2096992859 -0.2658878729
O 2.8932543848 0.4987308271 0.1938991496
O 0.9181569512 2.4531884014 -0.4815435143
O -1.6488529382 1.8147102363 0.5412365931
O -2.9653244053 -0.5967907281 -0.8969652004
H -3.1273051649 -0.6994907275 1.1582955304
H -2.4480898314 -2.155464082 0.3730471128
H 1.6042960391 -2.4538199163 -1.1348551813
H 3.499182624 -0.2135611904 -0.0637726861
H 0.2840721963 3.1284275384 -0.1946474678
H -2.5434232618 1.708371757 0.1871103356
H -3.758875674 -1.0931639696 -1.1403076519
*
