! wb97x-v def2-tzvp def2/J RIJCOSX DEFGRID2 scfconv7 GCP(DFT/TZ) printgap
%output
    printlevel normal
end
%cpcm
    smd true
    smdsolvent "water"
end
* xyz 0 1
C 1.5530766690834619 0.9219741959212499 -1.561891706735489
C 2.9253271019134126 1.022767690487974 -1.7297450437057242
C 3.7741617343884752 0.5023130631284081 -0.7623758079573001
C 3.2612600730632395 -0.11418441981174025 0.3836205665567055
C 1.8729314187488408 -0.20508520552534362 0.5360202393408489
C 1.0089017465955372 0.30240312224746396 -0.4384426064896566
C -0.4638544916888231 0.2190383684883057 -0.2874530713609232
C -1.1726908021720337 1.3599951247095534 0.07311402009346002
C -2.5516589651725528 1.3191916399000023 0.2123003816689484
C -3.2562942502556482 0.13367616395143994 -0.00836995166338085
C -2.5519289581692086 -1.0184301052462794 -0.38364810935334615
C -1.1619316224319198 -0.968105543253176 -0.5249797292001662
Cl -0.2858330066392862 -2.384809169936589 -1.0206353712524001
Cl -3.406382811199603 -2.4945480768130595 -0.6784014939894047
Cl -4.976097342890564 0.0856228641927832 0.17118219352147548
Cl -3.3883893471635793 2.7743334700330036 0.6702613676864871
Cl 1.2045587431675313 -0.9384996329300884 1.9660305032959926
Cl 4.32497795140241 -0.7464916909957178 1.5964348322505395
Cl 5.496144989813976 0.6338907809346749 -0.9952588045928839
H 0.887287424103228 1.3228708866966912 -2.3180997478428993
H 3.337953862809189 1.5015788316963734 -2.6097086935150786
H -0.6370855837966543 2.284547107896119 0.25392898460748337
*
