! wb97x-v def2-tzvp def2/J RIJCOSX DEFGRID2 scfconv7 GCP(DFT/TZ) printgap
%output
    printlevel normal
end
* xyz 0 1
C -1.4235169735319204 -1.2204276754791725 -7.38861930197281e-05
C -0.05033169050978577 -1.2193736145501912 -2.8857732872157927e-05
C 0.6438236692397208 -1.0726871358191619e-05 0.0001376033341376393
C -0.05032804543509097 1.219353668926975 2.7990854001229937e-05
C -1.4235086868325522 1.2204194008609464 -1.4614149308704314e-05
C -2.144111617534591 -6.851376517252333e-07 -4.600531814044613e-05
N -3.489865380231636 7.351281263910334e-06 -4.54300442976629e-05
N 2.067226558748896 2.130105977671647e-05 0.0004455915777721471
O 2.672670300174903 1.0875488354625142 -0.0002743551037399097
O 2.672726445688568 -1.0875228127651626 -0.0002776395166695855
H -1.9699863514182165 -2.1580847903127482 -8.308570133778567e-05
H 0.49629625278923506 -2.1540643308925564 -2.0445523216037172e-05
H 0.49629784044908143 2.1540362840816742 8.26055130936928e-05
H -1.9699689478109441 2.1580798253365527 2.5522317737082227e-05
H -4.002678893351655 -0.8671810596826247 -6.691994956113662e-05
H -4.002668054645683 0.8672020273536836 -2.7110855213258954e-05
*
