! pbe def2-sv(p) def2/J RI DEFGRID1 loosescf d4 GCP(DFT/SV(P)) printgap
%output
    printlevel normal
end
* xyz 0 1
C -2.2106842671 -1.0334415239 -0.4207663563
C -1.1661815908 -0.2387361544 0.3820254131
H -1.6589745072 0.1297376921 1.2920060985
C -0.6105480118 0.954897863 -0.4046229457
H -0.4876975636 0.7028345788 -1.4646069095
C 0.7611163733 1.3341772136 0.1779372011
H 0.6581962953 1.4976379532 1.263696792
C 1.7520693327 0.1811191332 -0.0437460532
H 2.125850001 0.2508125086 -1.0771141193
C 1.0554187276 -1.1862591423 0.1367540874
H 1.6995975551 -1.8161384798 0.761204615
O -0.1332916625 -1.0931832383 0.8783980384
O 0.890838308 -1.8752661112 -1.0626719521
O 2.8254332684 0.2344388081 0.8589175172
O 1.2783986065 2.4874599071 -0.438358636
O -1.4820760142 2.054452856 -0.4054367237
O -2.9400435219 -1.9101507238 0.3998207636
H -1.7178400537 -1.5885848655 -1.2281006296
H -2.9355545314 -0.3375054016 -0.8487064628
H 0.5776926894 -1.2922541501 -1.7699427981
H 3.2856262456 1.0810890558 0.7523412067
H 0.5413653582 3.089076753 -0.6333941071
H -1.7535089593 2.2684790571 0.500102568
H -2.3166555525 -2.5022035703 0.8455633874
*
