! r2scan-3c def2/J RI DEFGRID2 scfconv6 printgap
%output
    printlevel normal
end
%cpcm
    smd true
    smdsolvent "water"
end
* xyz 0 1
C -3.0824997181 0.3854545416 -0.0005945287
C -1.6228091483 0.0419446192 0.0003799008
C -1.1873570319 -1.2747909667 0.0002784141
C 0.1628746317 -1.5695664249 0.0001044776
C 1.1061788381 -0.5507868937 -3.27395e-05
C 0.6924745574 0.7852155776 0.0001004551
C -0.6673665549 1.0509087039 0.0002677169
C 1.6972230529 1.9031041365 9.88927e-05
O 2.4245077274 -0.9129093996 -0.000264281
H -3.6907337154 -0.5147182939 0.0155109147
H -3.3305301852 0.9900508643 0.87026917
H -3.3355177217 0.961123742 -0.8895933527
H -1.9053657224 -2.0815022418 0.000362025
H 0.5116654047 -2.5907657249 7.6779e-05
H -0.9959276853 2.0808417929 0.000430185
H 2.3289554833 1.8592534666 -0.8872716256
H 1.1860895776 2.8614802786 0.0018395183
H 2.3313492697 1.8573139672 0.8856447895
H 2.9875454459 -0.1252141673 -0.0002541729
*
