! wb97x-v def2-tzvp def2/J RIJCOSX DEFGRID2 scfconv7 GCP(DFT/TZ) printgap
%output
    printlevel normal
end
%cpcm
    smd true
    smdsolvent "water"
end
* xyz 0 1
C -1.264799869429645 -0.7191386629672107 -0.09428010148012105
C -3.2341909325719336e-07 -0.01040526191593831 0.363897544378399
C 1.259942405827428 -0.7287218525464215 -0.09270077802419595
O 0.005586380862291565 1.3656015749947412 -0.09463728890358247
H -2.1561038063561537 -0.18043365813572187 0.24094953185086887
H -1.2865678285243547 -0.7867973027509805 -1.1884601895145994
H -1.3028951838376146 -1.7354254196706114 0.31076991529156683
H -0.00041654110886533665 0.06959816921861944 1.4569435283348322
H 2.1549272741113654 -0.19817087035042275 0.24565141792521067
H 1.2836631562372474 -0.7942178371541297 -1.1869596608947746
H 1.2886225760683825 -1.7461125795622636 0.31025196779172326
H 0.006302868572896705 1.3377529878919725 -1.0614616162672317
*
