! pbe def2-sv(p) def2/J RI DEFGRID1 loosescf d4 GCP(DFT/SV(P)) printgap
%output
    printlevel normal
end
* xyz 0 1
C -2.5524493594 -0.9014261423 0.3149525573
C -1.1116350159 -0.4635432465 0.6230598556
H -0.9603366038 -0.4535690427 1.7144729662
C -0.8264923718 0.9372486298 0.0565311551
H -1.1022118413 0.946742346 -1.0041236388
C 0.663880678 1.3018884339 0.187394926
H 0.9057789275 1.4769316712 1.2499863007
C 1.565920754 0.1677798848 -0.3049006942
H 1.4921747448 0.1215504808 -1.401834957
C 1.1105130612 -1.1774931381 0.3020160831
H 1.2907156339 -1.1452193169 1.3905003962
O -0.2480951732 -1.4221391848 0.0372780747
O 1.8560956842 -2.2343241761 -0.1827009993
O 2.8841233626 0.4450496578 0.0932559444
O 0.9536441756 2.4552380553 -0.5626791122
O -1.6249040948 1.9231141263 0.6596671899
O -2.7853778428 -1.0373877315 -1.0608076553
H -3.2382837597 -0.1289477161 0.6667374568
H -2.7557305038 -1.8423944961 0.8393696465
H 1.5597020036 -2.4593234407 -1.0788316848
H 3.4493448051 -0.3072104342 -0.1421670635
H 0.2810508201 3.1265548432 -0.3668824536
H -1.4571590063 1.9467805967 1.6138578976
H -2.1948364308 -1.723106204 -1.4039352019
*
