  12
        -16.99313352
 C         -0.5290824286        1.4138132095       -0.0001071224
 N         -0.4148624084       -0.0279704446        0.0004435871
 C         -1.6566837817       -0.7617329559       -0.0000968577
 C          0.7718821661       -0.6183868886       -0.0001450643
 O          1.8577478730       -0.0490873298        0.0000102239
 H         -1.0611987719        1.7460724288       -0.8916894046
 H          0.4743120867        1.8347199011        0.0043037439
 H         -1.0693389835        1.7460760865        0.8865019996
 H         -2.2389316602       -0.5025869603       -0.8854654507
 H         -2.2369519986       -0.5076864953        0.8880434667
 H         -1.4566351295       -1.8300400941       -0.0034292181
 H          0.7131240559       -1.7201807784       -0.0004324174
  12
        -16.99091570
 C         -0.4985023806        1.4143311015       -0.0000401627
 N         -0.4225744522       -0.0353301093        0.0010737769
 C         -1.6630664640       -0.7727586897       -0.0005115000
 C          0.7664579710       -0.6199966610        0.0005391404
 O          1.8423460983       -0.0315550260       -0.0004854372
 H          0.0268315992        1.8129148141        0.8685936722
 H         -1.5389663511        1.7192554400        0.0236421984
 H         -0.0141865219        1.8111611958       -0.8930774731
 H         -2.2448482540       -0.5205424385       -0.8879056090
 H         -2.2439778043       -0.5258289988        0.8889537388
 H         -1.4545257737       -1.8396799386       -0.0037625730
 H          0.7219966782       -1.7225351510       -0.0035108041
