! r2scan-3c def2/J RI DEFGRID2 scfconv6 printgap
%output
    printlevel normal
end
%cpcm
    smd true
    smdsolvent "water"
end
* xyz 0 1
C -2.3354869251 -0.1745720774 -0.5448152415
C -1.275606402 -0.6005009712 0.4723471375
C 0.0097370743 0.1468594344 0.2293284489
O 0.13382459 1.3529924328 0.2699739931
O 1.0140842969 -0.6761833528 -0.0509767231
C 2.2951413193 -0.0960790876 -0.3123891542
H -2.4640913998 0.9047206786 -0.5149339136
H -2.0352197864 -0.4601553764 -1.549803565
H -3.2831999249 -0.6509198878 -0.3137912759
H -1.0760736532 -1.6688988929 0.4079573826
H -1.6193949226 -0.3517167156 1.4774343685
H 2.6056941819 0.5177280975 0.5338304266
H 2.2450675509 0.5291431523 -1.2044642734
H 2.9710533959 -0.932380552 -0.4591524676
*
