  15
        -17.73162516
 C         -1.7441570454       -0.8175776938        0.0018740813
 C         -0.5029416228        0.0031578937       -0.3364609532
 C         -0.6587077406        1.4486794024        0.1296902321
 C          0.7390620094       -0.6303252551        0.3046129650
 O          1.9466014642       -0.0047875007       -0.0752803027
 H         -1.6465627930       -1.8354917115       -0.3679105108
 H         -2.6249056580       -0.3686030079       -0.4494841968
 H         -1.8893222659       -0.8550732698        1.0790011604
 H         -0.3636914236       -0.0014715571       -1.4242155147
 H          0.2683478126        1.9952463070       -0.0269597421
 H         -0.8959858456        1.4766412856        1.1908819325
 H         -1.4558012458        1.9447466516       -0.4179770005
 H          0.6899311260       -0.5264502998        1.3915086532
 H          0.7777902958       -1.7016663075        0.0630116874
 H          2.0602681664       -0.0987665018       -1.0311362332
  15
        -17.73050575
 C         -1.3143373810       -0.9285059382       -0.1379497838
 C         -0.4188270113        0.2973831991       -0.3127344003
 C         -1.1131169751        1.5436908474        0.2304836248
 C          0.9287842222        0.1087378780        0.3985164109
 O          1.7617808092       -0.8598181954       -0.2026004371
 H         -1.4892087850       -1.1212601838        0.9187303553
 H         -0.8668129060       -1.8117863307       -0.5872534576
 H         -2.2743244102       -0.7599769544       -0.6192740082
 H         -0.2128433354        0.4376681911       -1.3794958070
 H         -0.4954713590        2.4255225583        0.0798943803
 H         -1.3033551723        1.4341439571        1.2958458881
 H         -2.0625116175        1.6969944186       -0.2756786529
 H          1.5016490594        1.0385884046        0.3538774962
 H          0.7585915771       -0.1394282607        1.4554385430
 H          1.3280211899       -1.7222608635       -0.1509671975
  15
        -17.73032428
 C         -1.2753747672       -0.9410479579       -0.1594077057
 C         -0.4097565788        0.3077880279       -0.3069351795
 C         -1.1324307768        1.5402367045        0.2283959844
 C          0.9249573418        0.1170361860        0.4188310956
 O          1.6643549135       -0.9010660642       -0.2277040330
 H         -0.7257510004       -1.8132548468       -0.5040704139
 H         -2.1843808017       -0.8451046949       -0.7472804632
 H         -1.5485783940       -1.0900934742        0.8831457680
 H         -0.1823813863        0.4514089028       -1.3684360262
 H         -1.3370092409        1.4257618293        1.2905965623
 H         -2.0766633842        1.6739247755       -0.2922108765
 H         -0.5299479725        2.4341543120        0.0866768892
 H          1.4883523180        1.0604994704        0.3995615111
 H          0.7350245155       -0.1548359822        1.4661946029
 H          2.4949255374       -1.0417697568        0.2448136942
  15
        -17.72989822
 C         -1.3537762043       -0.8870309531        0.3905842270
 C         -0.5900458744        0.0818459039       -0.5089279315
 C         -0.7112528666        1.5140887667        0.0111088831
 C          0.8814213740       -0.3478487011       -0.6307983929
 O          1.5783045413       -0.3797921356        0.5956254866
 H         -2.3818054615       -0.5586597045        0.5192866458
 H         -0.8776780640       -0.9411542499        1.3671065301
 H         -1.3582465187       -1.8847885549       -0.0414308716
 H         -1.0107973090        0.0397273969       -1.5190989773
 H         -1.7477242819        1.8385743585       -0.0321620510
 H         -0.1145959720        2.1949642158       -0.5922041355
 H         -0.3852728483        1.5763323288        1.0469392871
 H          0.9326370653       -1.3700552442       -1.0144778211
 H          1.3990811184        0.3117506934       -1.3413342362
 H          1.6264648132        0.5195131193        0.9472859196
  15
        -17.72923913
 C         -1.3513328800       -0.8691646649        0.4086666949
 C         -0.5928239191        0.0845049328       -0.5111980775
 C         -0.6698544329        1.5174947338        0.0100030166
 C          0.8699848575       -0.3554670404       -0.6457939120
 O          1.4974934584       -0.3269404128        0.6207039728
 H         -1.3373478444       -1.8798351000        0.0073360698
 H         -2.3849209339       -0.5510640401        0.5156292354
 H         -0.8831371037       -0.8789461847        1.3897211483
 H         -1.0343589162        0.0432197998       -1.5130126112
 H         -0.1742170110        2.2010936809       -0.6754089469
 H         -0.1792602937        1.5802914387        0.9781007895
 H         -1.7060937598        1.8255811762        0.1204635384
 H          0.9042090901       -1.3723168539       -1.0616856563
 H          1.3877951183        0.3214327164       -1.3397738961
 H          2.4190964635       -0.5965735153        0.5239053300
