! pbe def2-sv(p) def2/J RI DEFGRID1 loosescf d4 GCP(DFT/SV(P)) printgap
%output
    printlevel normal
end
* xyz 0 1
C -3.8530569368 -0.6263959897 0.0018429832
N -2.6726071855 0.2113096022 0.0003166959
C -2.8952256342 1.6443396067 -0.001211476
C -1.4477465578 -0.3719307819 -0.0003669066
O -1.3149149756 -1.5977752112 -1.33012e-05
N -0.3908929752 0.5037092699 -0.0010051228
C 0.9774126819 0.231154672 -0.0004786613
C 1.8473757781 1.3229141439 0.0005692258
C 3.2146488825 1.1305744205 0.0011522858
C 3.7395192953 -0.1515279566 0.000676164
C 2.8801822114 -1.2366834667 -0.0005083652
C 1.5088727162 -1.0552653861 -0.0011218121
H -3.532187083 -1.6659311147 0.0058161667
H -4.4509549477 -0.4386568083 -0.891161097
H -4.4527505329 -0.4321952832 0.8921865068
H -2.4767192375 2.1108702299 -0.8956142915
H -2.4791735219 2.1124117984 0.8936166458
H -3.9681329325 1.8147190806 -0.0030055247
H -0.6099602016 1.4889293885 -8.50953e-05
H 1.4463991302 2.3259655481 0.0008828208
H 3.8737638437 1.9855088593 0.0019215462
H 4.8078179596 -0.3031460255 0.00132599
H 3.2765461084 -2.2410493592 -0.0007934252
H 0.8442454671 -1.9032941977 -0.001907325
*
