! wb97x-v def2-tzvp def2/J RIJCOSX DEFGRID2 scfconv7 GCP(DFT/TZ) printgap
%output
    printlevel normal
end
%cpcm
    smd true
    smdsolvent "water"
end
* xyz 0 1
C 2.02327281912947 0.7604251406783965 -0.0004196811429845995
C 0.7813252707765457 -0.07707506589904549 0.0001690075789700074
O 0.8285529760864395 -1.3091418387285714 0.002088722838603781
C -0.5010859188244216 0.6523228107697343 -0.0019550278314191868
C -1.673561765773136 0.018886236668508433 -0.740245908063188
C -1.672985789890559 0.02312240488046061 0.7410807685857559
H 2.0198063428952624 1.418468566122419 0.8763648300485899
H 2.9186717104186672 0.13774946561975185 0.0010882464978472846
H 2.020963211044482 1.4159183165193014 -0.879111894126874
H -0.4394117883785593 1.7345340603485604 -0.004880198235363713
H -2.3299649629570984 0.706683187005186 -1.261201093490035
H -1.4597421798753505 -0.9176237588289393 -1.244633898706619
H -2.3288450838085595 0.7139780820049788 1.2586659839783647
H -1.458694376087481 -0.9104135886258158 1.250756946963327
*
