! pbe def2-sv(p) def2/J RI DEFGRID1 loosescf d4 GCP(DFT/SV(P)) printgap
%output
    printlevel normal
end
* xyz 0 1
C -3.5330915323 0.3644303655 -0.4143057101
O -2.1283243568 0.3938917675 -0.6889713416
C -1.2987598517 -0.2343674505 0.1370350957
O -1.6646302515 -0.8585067101 1.1111203137
C 0.1365860794 -0.0335082948 -0.2798484076
C 0.9906671614 -1.2607049398 0.0320185516
C 2.4016800613 -1.0805937171 -0.5399772225
C 2.831970038 0.3915859608 -0.525620885
C 2.1992525287 1.1145110193 0.6578133321
C 0.6776303191 1.1936168959 0.4869517161
H -4.0352428615 0.2395340962 -1.3700911798
H -3.8191503704 1.3094417854 0.0463898387
H -3.761193866 -0.461900771 0.2598167086
H 0.1462012273 0.1658820195 -1.3535989959
H 1.0209436328 -1.3907277654 1.1145860531
H 0.5250527718 -2.1545199 -0.3863595185
H 3.098163707 -1.676933753 0.0504014165
H 2.4341648573 -1.4553535184 -1.5638023474
H 3.9187499605 0.4572538218 -0.4678706501
H 2.5207648862 0.8842062715 -1.4480186287
H 2.4457293288 0.5762633378 1.5737906444
H 2.6039867047 2.1229575788 0.7470605569
H 0.2041249248 1.2412429084 1.4703734262
H 0.4021549726 2.096138929 -0.0597421513
*
