! pbe def2-sv(p) def2/J RI DEFGRID1 loosescf d4 GCP(DFT/SV(P)) printgap
%output
    printlevel normal
end
* xyz 0 1
C 0.0005826034 1.4257992571 -7.60449e-05
C 0.7879998508 0.3272712952 -1.01345e-05
C 0.20512789 -1.0061978692 -0.0001075094
O 0.8225307409 -2.0568801142 -1.98733e-05
N -1.1769793769 -0.9923990148 1.18244e-05
C -2.0033726788 0.10650527 0.0001207446
O -3.2146807246 0.014699765 1.84105e-05
N -1.351912656 1.3126814556 -2.55103e-05
Cl 2.5104314297 0.4301461233 4.3191e-05
H 0.4166781827 2.420920638 -0.0002081073
H -1.6383653728 -1.8983223949 -5.064e-05
H -1.9342173151 2.1441541026 -0.0001778219
*
