! pbe def2-sv(p) def2/J RI DEFGRID1 loosescf d4 GCP(DFT/SV(P)) printgap
%output
    printlevel normal
end
* xyz 0 1
C -1.8773986383 -0.5703871853 -0.8497650836
C -1.1836786046 -0.1144516876 0.4402205106
H -1.9308928799 -0.104472555 1.2420332831
C -0.6010454552 1.3014870237 0.3109471034
H -1.3358340832 1.9200533199 -0.2184831992
C 0.7026476292 1.3019444684 -0.5110231871
H 1.1851156581 2.287352645 -0.387031244
C 1.678998472 0.2596679866 0.0681348807
H 2.5225747614 0.1162278524 -0.6161330606
C 1.0096563602 -1.1154080821 0.2535649959
H 1.639286839 -1.6980938247 0.9469561298
O -0.2237879172 -1.0476290577 0.9199707085
O 0.9370518211 -1.7415606537 -0.990294326
O 2.2263433818 0.7159208473 1.2775368458
O 0.3686238152 1.0904602699 -1.8560217835
O -0.3726256669 1.7888570673 1.615141466
O -2.6246323313 -1.7330205359 -0.5621137367
H -1.1290899067 -0.7579420111 -1.6250111153
H -2.5385769457 0.239459694 -1.1823017888
H 0.5835902181 -2.6373099944 -0.8801717722
H 1.4949179062 0.8936676719 1.8958673699
H 1.1733483451 1.0605115518 -2.3931853944
H -0.3000571086 2.7540845148 1.5999973408
H -3.0734424272 -2.0246499294 -1.3679991606
*
