! pbe def2-sv(p) def2/J RI DEFGRID1 loosescf d4 GCP(DFT/SV(P)) printgap
%output
    printlevel normal
end
* xyz 0 1
C -2.001156891 -1.215359893 -0.3498615865
C -1.2851604192 -0.3874588148 0.7298461141
H -1.9573305617 -0.2990298995 1.5895982368
C -0.9654024707 1.0390000255 0.2447712744
H -1.3408772518 1.1584737308 -0.7832142187
C 0.5545685447 1.2804391283 0.2217868812
H 0.9194176498 1.384675519 1.2503739363
C 1.2241587556 0.0676268053 -0.4291444297
H 0.7343342153 -0.14325688 -1.3905045002
C 1.0065779784 -1.1457480544 0.4920657246
H 1.8292121461 -1.1733744217 1.2263419914
O -0.1513818744 -1.0434320816 1.2833139448
O 1.0116578735 -2.2943303129 -0.2964447216
O 2.5920694558 0.3309280417 -0.6095216282
O 0.8539362987 2.4961591113 -0.4118340781
O -1.6155157997 1.9541260338 1.0941668925
O -1.392633918 -1.0392843695 -1.6105474927
H -3.044460884 -0.8771603209 -0.386690251
H -1.9718997267 -2.2664171636 -0.0437294934
H 0.9610387002 -3.082794674 0.2649645228
H 2.9960892225 -0.3992131462 -1.1001534405
H 0.8379432787 2.3775681031 -1.3725183062
H -1.2790257886 2.8430181343 0.9013064511
H -1.815931336 -1.6302716184 -2.2492653818
*
