! pbe def2-sv(p) def2/J RI DEFGRID1 loosescf d4 GCP(DFT/SV(P)) printgap
%output
    printlevel normal
end
* xyz 0 1
C -2.2376048469 -1.1686915149 0.0488814286
C -0.8616686855 -0.5741462931 0.3902584576
H -0.7976285011 -0.372082092 1.4707410044
C -0.628819505 0.7493280901 -0.3500687725
H -0.7561611916 0.5761785175 -1.4317115778
C 0.8050712919 1.2698202783 -0.1302954718
H 0.7327949224 2.118728124 0.5595554984
C 1.7157076078 0.2035961361 0.5158736105
H 2.7592876462 0.4602192061 0.2798097374
C 1.4295705642 -1.1595415995 -0.1381619507
H 2.0332185369 -1.955956364 0.3194952761
O 0.0893643513 -1.5698656488 0.0347457735
O 1.7979792606 -1.1529805802 -1.4805555003
O 1.5001035456 0.2065291456 1.9021096907
O 1.31320781 1.6543822151 -1.3878702895
O -1.5145817174 1.746652829 0.0901135585
O -3.3023580437 -0.3721657738 0.5070525253
H -2.2810495575 -2.1835493171 0.4555241937
H -2.3396772221 -1.2312883115 -1.0372105144
H 1.5006103187 -0.3307987776 -1.9112539408
H 2.1442198573 -0.3681191831 2.3410457988
H 2.0055358531 2.3223403883 -1.2865458734
H -2.4199914821 1.3855758862 0.0713018836
H -3.383852913 -0.4583873161 1.467708921
*
