! r2scan-3c def2/J RI DEFGRID2 scfconv6 printgap
%output
    printlevel normal
end
* xyz 0 1
C -1.8974844754 0.0397404364 0.4514521558
C -0.8732988554 -0.1672235173 -0.6664507478
C 0.5320762678 -0.072708104 -0.1066500027
O 1.1934731303 -1.0622225166 0.1958447729
N 0.9962696205 1.1720807579 0.0585190751
H -2.9039354824 -0.0712162697 0.0574806396
H -1.7484085436 -0.6998861625 1.2349240355
H -1.8011649506 1.0295068997 0.8895518408
H -1.0121922275 0.5804188586 -1.446947315
H -0.9982763786 -1.1606810365 -1.097637873
H 0.441681921 1.9736692062 -0.1864111889
H 1.9100380982 1.3070770056 0.4599246865
*
