! pbe def2-sv(p) def2/J RI DEFGRID1 loosescf d4 GCP(DFT/SV(P)) printgap
%output
    printlevel normal
end
* xyz 0 1
C -2.3609008793 -1.0104284772 0.3821549705
C -1.0845224687 -0.25485957 0.8060900571
H -1.3004052489 0.2078021646 1.7781433965
C -0.6746539999 0.8515728549 -0.1831391
H -0.667897652 0.4601678824 -1.2065714353
C 0.7539660055 1.295136645 0.1883090194
H 0.7842060077 1.5163492999 1.263564876
C 1.7266886859 0.13450344 -0.1058334768
H 2.0479553655 0.181023442 -1.1517482898
C 0.9952943494 -1.2193996949 0.0772761292
H 1.7102632059 -1.9576258697 0.4770140262
O -0.006739559 -1.1612272883 1.0560627635
O 0.5225740302 -1.6143761964 -1.1714885908
O 2.9059375441 0.2079344198 0.647183512
O 1.1232342175 2.4984724718 -0.4274705205
O -1.5966284369 1.907797322 -0.1839313717
O -2.2565338627 -1.6907899342 -0.8446857135
H -3.1867418448 -0.2925766871 0.368831033
H -2.5596395906 -1.7782360777 1.1333366501
H -0.175292293 -2.2863969328 -1.063655232
H 2.6992009768 0.1948139306 1.593215883
H 1.121458235 2.3965156622 -1.3897949072
H -1.4266342251 2.4998165121 0.5627036042
H -2.3528155586 -1.0632211211 -1.5736718988
*
