! pbe def2-sv(p) def2/J RI DEFGRID1 loosescf d4 GCP(DFT/SV(P)) printgap
%output
    printlevel normal
end
* xyz 0 1
C 2.3100489783 -0.181883204 -0.4215627647
C 1.0825929468 0.1034963373 0.4415076733
C 0.2691893193 1.2617407731 -0.1558121715
C -1.178791242 1.2054984282 0.3183455797
C -1.8817249795 -0.0327135692 -0.2527800973
C -0.8935012813 -1.1859965045 -0.4641496283
C 0.2028328337 -1.150074293 0.5948216076
H 2.8939147435 0.7252420312 -0.5616461673
H 2.9448433053 -0.9297106527 0.0484907068
H 2.0103117887 -0.5512188296 -1.3999005496
H 1.4307328329 0.4009273488 1.4370260488
H 0.722765675 2.2125601803 0.1300744026
H 0.2882332247 1.2040990606 -1.2457918054
H -1.1897411071 1.173631091 1.4095784861
H -1.710697809 2.1077878529 0.0121886518
H -2.6735374137 -0.3441637056 0.430987703
H -2.3525759103 0.2145628944 -1.2060373141
H -1.4234548391 -2.1391100326 -0.4227865474
H -0.4364170132 -1.1106718084 -1.452059079
H -0.2646756322 -1.1596541188 1.581256408
H 0.8251101233 -2.0434284123 0.51919604
*
