! pbe def2-sv(p) def2/J RI DEFGRID1 loosescf d4 GCP(DFT/SV(P)) printgap
%output
    printlevel normal
end
* xyz 0 1
C -1.0185495211 -1.6078851924 -3.40113e-05
S -0.4683664801 0.0838785634 0.0005472324
O -0.7983208543 0.7665331597 1.2242612783
O -0.7970890716 0.7661665631 -1.2237565538
Cl 1.5839107448 -0.0600026335 -0.0007512549
H -0.1432899318 -2.241162738 0.0541783811
H -1.6475598046 -1.728085461 0.8716845001
H -1.559623431 -1.757951305 -0.9244535613
*
