! pbe def2-sv(p) def2/J RI DEFGRID1 loosescf d4 GCP(DFT/SV(P)) printgap
%output
    printlevel normal
end
* xyz 0 1
C -2.4967411079 -0.432909572 -0.282562494
C -1.0789520599 -0.187283321 0.2444074042
H -1.0615360865 -0.3909852127 1.3264862305
C -0.6277100068 1.2713738511 0.0238678491
H -1.2618775564 1.7392282378 -0.7401322713
C 0.8319999343 1.3035429714 -0.4972047986
H 1.2405016495 2.3090081344 -0.3447511732
C 1.6785889059 0.3070888367 0.3113782466
H 2.6946306233 0.2676668433 -0.0970301654
C 1.0849117646 -1.1182157451 0.1608291375
H 1.021895768 -1.5684960371 1.1726159226
O -0.2126809178 -1.0982355468 -0.4108670535
O 1.9034469366 -1.8455889848 -0.6768911995
O 1.7968761057 0.6909644879 1.655140007
O 0.8962465508 1.0736891475 -1.8780540582
O -0.7471873744 1.9333775591 1.2632801241
O -2.9906902066 -1.6963918689 0.0742519782
H -2.4966225752 -0.3068141369 -1.3722424654
H -3.170750261 0.2967380395 0.1690388795
H 1.5507310262 -2.7402710144 -0.8053475523
H 0.9483042468 1.0591331663 1.9621204457
H 0.6864264494 0.1438617388 -2.0561880971
H -0.7484070869 2.8927106715 1.134103097
H -2.4137854712 -2.3736187437 -0.3068955509
*
