! pbe def2-sv(p) def2/J RI DEFGRID1 loosescf d4 GCP(DFT/SV(P)) printgap
%output
    printlevel normal
end
* xyz 0 1
C -2.526569207 -0.9746958142 0.332586387
C -1.1006901138 -0.4777193875 0.6179612973
H -0.9515483804 -0.4147915573 1.7062539087
C -0.8423052595 0.9167032126 0.0063903134
H -1.0625917193 0.8672087239 -1.0699592478
C 0.6341404158 1.2828391481 0.2007322089
H 0.8184447153 1.4246223136 1.2720763661
C 1.547282142 0.1581816348 -0.3186259529
H 1.4168799385 0.0645563639 -1.4111328027
C 1.1465408643 -1.1790956009 0.3298732415
H 1.3196585494 -1.1136454108 1.4156571178
O -0.2169831219 -1.435619695 0.0624002975
O 1.8818486292 -2.254099614 -0.1088990134
O 2.8912646313 0.4240747632 -0.0174912089
O 0.9871294973 2.5055323672 -0.3959054578
O -1.6176135143 1.9075441955 0.6329484368
O -2.8354613993 -0.9631143583 -1.0368179331
H -3.2446808124 -0.3159166897 0.822428673
H -2.6252997094 -1.9824057647 0.7500715921
H 1.7614862169 -2.3764985451 -1.0643127206
H 3.0514883441 1.3716204528 -0.1614311846
H 0.6232098204 2.5578201763 -1.2920838505
H -2.5235530296 1.8770218634 0.2953634928
H -2.2847836789 -1.6227714164 -1.4813540365
*
