! pbe def2-sv(p) def2/J RI DEFGRID1 loosescf d4 GCP(DFT/SV(P)) printgap
%output
    printlevel normal
end
* xyz 0 1
C -2.2376453697 -0.976188207 -0.3962969348
C -1.1601487417 -0.2261639587 0.3967393167
H -1.6242969882 0.1818274624 1.303892542
C -0.5735235151 0.9316851245 -0.4286778649
H -0.4027821231 0.6073126864 -1.4616057427
C 0.7744632839 1.310866648 0.1969812531
H 0.6510812101 1.4298968659 1.2860018536
C 1.7514662654 0.1522343525 -0.0429710278
H 2.0793833099 0.1994149959 -1.0905751644
C 1.0392241921 -1.2086644331 0.1480708458
H 1.6681083025 -1.848969932 0.7844912797
O -0.1559511443 -1.1219848309 0.88002762
O 0.857592477 -1.7668249876 -1.1170204768
O 2.8310370275 0.3246349964 0.8398575684
O 1.2381350843 2.5042909392 -0.375606362
O -1.4761576784 1.9959213191 -0.5189583559
O -2.9955248249 -1.8401390661 0.4137855628
H -1.7653682955 -1.5260081893 -1.2202981733
H -2.9345531582 -0.2451184131 -0.8108396899
H 0.6119103857 -2.7019787469 -1.0452527569
H 3.5700933847 -0.2468123377 0.5871505364
H 2.1035685011 2.7165516849 0.0040523417
H -1.4763840731 2.5031670036 0.3059513182
H -2.3889667828 -2.3981571363 0.9224101541
*
