! r2scan-3c def2/J RI DEFGRID2 scfconv6 printgap
%output
    printlevel normal
end
%cpcm
    smd true
    smdsolvent "water"
end
* xyz 0 1
C -2.4803273284 0.233996317 0.0131907735
O -1.0519391803 0.3340923523 0.0038263307
C -0.3661187382 -0.7883220792 -0.0168434607
O -0.8617276736 -1.8939571072 -0.0270096561
C 1.1337336735 -0.5867423025 -0.0288710451
Cl 1.596092092 1.1319131668 0.0230668004
H -2.8230655789 -0.253151512 -0.8997745079
H -2.8425670208 1.2553390253 0.0720340757
H -2.8058840391 -0.350774202 0.8736562617
H 1.5461819076 -1.0229946825 -0.9394769069
H 1.5701725308 -1.0845278759 0.8377716231
*
