! pbe def2-sv(p) def2/J RI DEFGRID1 loosescf d4 GCP(DFT/SV(P)) printgap
%output
    printlevel normal
end
* xyz 0 1
C -3.3224610076 -0.1803456378 -0.8977920302
C -1.8357249373 -0.3433814562 -0.5970604646
H -1.3776387838 -0.9041437326 -1.4176296093
C -1.5963353262 -1.1164863201 0.698220201
C -0.1140889438 -1.4591712399 0.8214254633
C 0.7961789148 -0.224742956 0.6386562963
H 1.4420904386 -0.0989667847 1.514267341
C -0.026355917 1.0368649874 0.5259722967
O 0.2197522256 2.0218832493 1.1988936095
C -1.1578337319 1.0276456888 -0.4657860107
C 1.7194343887 -0.3509555052 -0.5979553607
C 2.4572373003 0.9592266654 -0.871741093
C 2.7436893694 -1.4641001482 -0.383962744
H -3.4665541152 0.4055167142 -1.8021556471
H -3.7889365658 -1.1521043721 -1.0386636908
H -3.8236264744 0.3245534664 -0.0747627277
H -1.9165209099 -0.506477533 1.5469638261
H -2.1810430917 -2.0373021429 0.7041984017
H 0.075664934 -1.9085591238 1.7962255458
H 0.1247473509 -2.2032055757 0.0608594794
H -1.8764853372 1.7871254438 -0.1486988367
H -0.7537737341 1.3529892413 -1.4271741039
H 1.1012762543 -0.5958872509 -1.4671614523
H 3.1438323409 0.8353948742 -1.7056251324
H 3.0288936302 1.2605237269 0.0038343661
H 1.7690823412 1.7667937958 -1.1116754689
H 3.3597392961 -1.5754747575 -1.2727415077
H 2.2656235623 -2.4172671007 -0.1789246139
H 3.3924440107 -1.2194081752 0.4539597662
*
