! wb97x-v def2-tzvp def2/J RIJCOSX DEFGRID2 scfconv7 GCP(DFT/TZ) printgap
%output
    printlevel normal
end
%cpcm
    smd true
    smdsolvent "water"
end
* xyz 0 1
C -2.7974321655754304 0.7397360196125552 -0.36613670381788915
C -1.9484875080225752 -0.33142041930883315 0.30606044786315634
C -0.4567279757378107 -0.1908895860468857 0.131676573089857
C 0.3684422131019789 -1.3024660176751561 0.3431259461011565
C 1.7423498730519182 -1.168184304266171 0.22193455921159058
C 2.2660400501300333 0.07764498894530124 -0.11547799873889182
C 1.3790020545211674 1.1242611736634278 -0.3148383464671359
N 0.04615277774633611 1.0090944137668194 -0.19635613954791603
H -2.601620957276412 1.7317721826378336 0.047395470886126966
H -3.8583068679710184 0.5169507076582145 -0.21851137084011543
H -2.606948074122141 0.7791160339546709 -1.4432744708381107
H -2.2383401224557313 -1.3241156203109656 -0.05656529548670595
H -2.1574147677735285 -0.3408239313482853 1.3851943515677114
H -0.076101751725996 -2.259045941883195 0.6005950798525425
H 2.3958940295792504 -2.019708530125608 0.3836172539869602
H 3.333643994639342 0.23350090474268947 -0.2251272742929933
H 1.7512049875736617 2.1109187552370225 -0.584549270958085
*
