! pbe def2-sv(p) def2/J RI DEFGRID1 loosescf d4 GCP(DFT/SV(P)) printgap
%output
    printlevel normal
end
* xyz 0 1
C -1.8686269829 -0.5957854214 -1.0875572336
C -1.2371372438 -0.5407757729 0.3209444085
H -1.9995944496 -0.8522830829 1.0479631639
C -0.7815433237 0.8732141467 0.6992530369
H -1.5940702128 1.5629560941 0.4351163411
C 0.4631974155 1.3197994454 -0.0983296585
H 1.0487295901 2.0010195468 0.5369706835
C 1.3780262576 0.1295424934 -0.4271028186
H 1.1419307986 -0.241553693 -1.4382576402
C 1.1095080812 -1.0147210908 0.5683487857
H 1.2758883606 -0.6507399251 1.5955570944
O -0.193430972 -1.5087619909 0.4068756847
O 1.9957826576 -2.0630524494 0.3632419175
O 2.7171413241 0.5510699469 -0.3639098516
O 0.0140141214 1.9865699913 -1.2524793905
O -0.5515874563 0.8928279997 2.0881642665
O -3.1927719747 -0.1267760318 -1.1033742797
H -1.9161060604 -1.645861315 -1.3841040654
H -1.249364939 -0.0449200264 -1.8016983656
H 1.5900831599 -2.7008372447 -0.2448643413
H 3.2835288659 -0.2316091216 -0.2726500702
H 0.7710316252 2.3733364665 -1.7156329469
H -0.5179502345 1.8060820515 2.4084868697
H -3.1999938206 0.8395407758 -1.0744368848
*
