! pbe def2-sv(p) def2/J RI DEFGRID1 loosescf d4 GCP(DFT/SV(P)) printgap
%output
    printlevel normal
end
* xyz 0 1
C -2.5528163843 -0.6673072434 -0.3662560892
C -1.1822586411 -0.3033139675 0.2135492008
H -1.2500099606 -0.2916338585 1.3137628519
C -0.7181863743 1.0828763777 -0.2818964115
H -0.726058464 1.0956249759 -1.3770043223
C 0.7185797481 1.335504916 0.199955974
H 0.7141558438 1.4075345837 1.3036340385
C 1.622379175 0.1593402292 -0.2138121509
H 1.6568035963 0.1147538659 -1.30831616
C 1.0253487001 -1.1550422523 0.3251335497
H 0.9935864463 -1.1161300416 1.4289736404
O -0.2786082013 -1.3197742078 -0.1866708321
O 1.7713489362 -2.2675929668 0.0086867463
O 2.9468943791 0.3710158125 0.2005736279
O 1.1870219069 2.5426583128 -0.3446184867
O -1.6096999018 2.0899640994 0.1055901719
O -3.1144439104 -1.7905576066 0.2589744066
H -2.4404262279 -0.832267492 -1.4442643138
H -3.2399084865 0.1634924641 -0.1990639555
H 1.737221279 -2.4310556628 -0.946917581
H 3.0484979527 0.1542001277 1.1386830584
H 2.1565313904 2.5459274419 -0.293695995
H -1.504405045 2.2875576348 1.0478907523
H -2.5194063424 -2.5436921274 0.1307649412
*
