! pbe def2-sv(p) def2/J RI DEFGRID1 loosescf d4 GCP(DFT/SV(P)) printgap
%output
    printlevel normal
end
* xyz 0 1
C -2.2837085583 -0.7444440474 -1.0162889364
C -1.7559669501 0.0302957049 0.1544200604
O -2.4999934732 0.6463642779 0.8973760715
C -0.259462481 0.0613593058 0.3674304804
C 0.3651497518 1.0233365665 -0.6563217595
C 1.8112292032 1.3379084234 -0.256252748
C 2.4867536033 0.1308526113 0.4080410293
C 1.9010737541 -1.1685937006 -0.1332850056
C 0.4286787237 -1.3098914443 0.2750956293
H -1.6004096306 -0.708110381 -1.857845307
H -2.4096363795 -1.7820453923 -0.7111122536
H -3.2593121049 -0.3570396349 -1.2982168215
H -0.0999461466 0.4918270626 1.3618731719
H 0.3404955033 0.5594240975 -1.6424083397
H -0.2167877329 1.9456468896 -0.7056936534
H 2.3650571017 1.6299474448 -1.1497253997
H 1.8275094304 2.1845463953 0.4317056323
H 3.5616527668 0.1638013909 0.2270502632
H 2.3355841176 0.1627557843 1.4884652965
H 1.9932589861 -1.1704216627 -1.2202363026
H 2.4655751763 -2.0212506527 0.245575091
H -0.078916741 -1.945086147 -0.4486784923
H 0.359762744 -1.7974029946 1.2489713508
*
