! r2scan-3c def2/J RI DEFGRID2 scfconv6 printgap
%output
    printlevel normal
end
* xyz 0 1
C -1.9096993678 -2.1867353724 0.0011286913
C -0.9098507208 -1.0695790082 -0.0012066462
C 0.4517007715 -1.3229120468 -0.0014596828
C 1.3790081231 -0.2853648555 -0.0011782478
C 0.9255608768 1.0219050981 -0.000558952
C -0.4396237895 1.2927177286 0.000125523
C -1.3515246015 0.248837163 -0.000234028
O -0.8297447295 2.6002493989 0.0004063718
C 2.8461138928 -0.5917591062 0.0013314726
H -2.5172956923 -2.1464642656 0.9038354667
H -2.5768862858 -2.0995217183 -0.8545770131
H -1.4122920141 -3.151541323 -0.0404076315
H 0.8048361459 -2.3439570487 -0.0019888978
H 1.6144851998 1.852747916 -0.001021512
H -2.4127058241 0.4556935121 -1.13489e-05
H -1.7965494268 2.6623108286 0.0024050803
H 3.103486049 -1.2122954943 -0.8551301792
H 3.4332152424 0.3214104146 -0.0380746708
H 3.1133002884 -1.1405691948 0.9029718028
*
