! wb97x-v def2-tzvp def2/J RIJCOSX DEFGRID2 scfconv7 GCP(DFT/TZ) printgap
%output
    printlevel normal
end
* xyz 0 1
C -2.558375024230262 -0.8938922491586927 0.35981724827345846
C -1.1364895179278283 -0.4219641590668663 0.5971810428538018
H -0.9762042068974922 -0.35060569413874876 1.685967075873461
C -0.8169087518339337 0.9271480516125877 -0.0459175940943652
H -0.9999926508817119 0.8613032559618877 -1.1297616255015488
C 0.6509193910013499 1.2606738022900001 0.1942381106905173
H 0.8130578768930758 1.3960675155963622 1.2713078871954893
C 1.5507768869891243 0.13271161717757426 -0.3043862223474227
H 1.4419839771223564 0.030293907987444794 -1.3968300723842253
C 1.118459726580701 -1.1772727607403275 0.3391988530863303
H 1.2459141973976284 -1.1330961294515187 1.4336683023276646
O -0.26136493192536553 -1.4174181154329049 0.0365996006579068
O 1.86622254980302 -2.2243097374921557 -0.2175738122165817
O 2.914561459492566 0.3699715564629751 0.04671916227847072
O 1.0155039439672264 2.5109083021380862 -0.40479830844887216
O -1.671962126291972 1.907810309250194 0.5470032284677001
O -2.9050415104294864 -0.9628068592148981 -1.027887881994606
H -3.2517871550589854 -0.18793608669645587 0.8238547025707739
H -2.688518806055581 -1.872349544390442 0.841885408870294
H 1.7858446133171442 -2.992659259202498 0.3642839363406433
H 3.1298901751648738 1.262753285690378 -0.25779142193040055
H 0.887055798387325 2.427597446675543 -1.3615267229524355
H -1.3851757155973 2.7699315754394713 0.21491562793897742
H -2.3310342228752736 -1.6241853640805395 -1.436667393130411
*
