! wb97x-v def2-tzvp def2/J RIJCOSX DEFGRID2 scfconv7 GCP(DFT/TZ) printgap
%output
    printlevel normal
end
* xyz 0 1
C -0.4831447760766194 0.4531018353128061 0.0008385614096148895
C 0.48311438012346186 -0.4530807184921344 0.000400030280042223
Cl 2.1564880035545992 0.04785491131335271 -0.0005947301721024341
Cl -2.156502150325499 -0.04784324800126051 -0.0006973686298752551
H -0.3358024821074536 1.526864807838442 -0.0001603038473242298
H 0.33577835797111144 -1.526848894419304 -0.0006470173653252411
*
