! wb97x-v def2-tzvp def2/J RIJCOSX DEFGRID2 scfconv7 GCP(DFT/TZ) printgap
%output
    printlevel normal
end
* xyz 0 1
C -4.365030881283602 -1.2561230219115436 0.4058231125905733
N -3.3090181117417785 -0.7795936062592457 -0.47845481865362366
C -2.224088843308736 -0.1727027231165584 0.013329348585683255
O -1.979775237696263 0.019687920482575918 1.1989346309197075
O -1.38371292628397 0.23696408047701684 -1.009947947823549
C -0.16912968022717453 0.8127931374202071 -0.6153300151640569
C -0.04369322601249745 2.175751504449937 -0.6592355149082639
C 1.1951910478558092 2.7686965232614766 -0.3372886897692859
C 2.268457492183348 1.9897341116984735 0.02236525010646215
C 2.1523912482569476 0.5789554900792081 0.07418436737113761
C 0.9025260963902841 -0.038373416110771906 -0.25457921284094354
C 0.7887407433884803 -1.4483528134789285 -0.20792461402628715
C 1.8687742445142004 -2.2182612006602422 0.15429958729560736
C 3.102924289023397 -1.6160101158729046 0.48187428225657003
C 3.241182378616497 -0.2492337772461413 0.4414794063329353
H -3.9942222515855423 -2.0355000984577702 1.078386851879848
H -5.161406600832199 -1.6741753176772773 -0.21039899985097227
H -4.775177349648325 -0.4373902004396909 1.0044795595438258
H -3.4060627312461316 -0.8707139344300183 -1.4779278168098422
H -0.8967281021568152 2.783375321287688 -0.9419000350292833
H 1.2899943114282575 3.848809095340536 -0.3749022190569013
H 3.222860136463681 2.4436707387514147 0.2714604862618427
H -0.15566464624349327 -1.9183681097403238 -0.4620843497679457
H 1.7752707719898728 -3.2989797435738706 0.1877883949271195
H 3.944632443708739 -2.239806862246043 0.7651286466009738
H 4.18889507753976 0.21937500135261875 0.6906623087921248
*
