! wb97x-v def2-tzvp def2/J RIJCOSX DEFGRID2 scfconv7 GCP(DFT/TZ) printgap
%output
    printlevel normal
end
* xyz 0 1
C 1.324767635893484 1.2325549364023434 0.21739843295264752
C 0.48865508283817055 0.10534390275272856 -0.4134604557459278
C 0.9087046918652455 -1.2761768016697819 0.06359614442681946
C -0.9572025933509045 0.39900469577648684 -0.16085690504570083
O -1.7418695291265305 -0.3559684763341713 0.39026260527103457
H 1.237532178139032 1.2076409939256345 1.308531932654192
H 1.0023132596915507 2.2173886770420013 -0.13427092643968022
H 2.3773453163636735 1.1024191793961526 -0.04782708469391214
H 0.6045472325157706 0.1851198294377959 -1.5065458289841713
H 1.963082418727669 -1.448982867226723 -0.1696572928525535
H 0.3175235336093365 -2.0616339118427365 -0.4159952620091896
H 0.7798013337709637 -1.3669968270098558 1.147000459315966
H -1.301898888873362 1.3945131033877105 -0.5113183851499508
*
