! wb97x-v def2-tzvp def2/J RIJCOSX DEFGRID2 scfconv7 GCP(DFT/TZ) printgap
%output
    printlevel normal
end
%cpcm
    smd true
    smdsolvent "water"
end
* xyz 0 1
C -2.243689958325276 -0.7542453671138801 -1.1044532766905364
C -1.7795678227781941 -0.003428180944130453 0.10637025129591766
O -2.5790659121514348 0.5916507647565732 0.8281493830167586
C -0.3009128618786035 0.041294260061142105 0.40832345384288316
C 0.33192053191941107 1.194319701845169 -0.4065683702147164
C 1.81910411916619 1.3293881924706359 -0.07530234362550524
C 2.56616423730065 0.01620107480859042 -0.31157136568101046
C 1.9277656498404574 -1.1283447972967626 0.4768676501997857
C 0.4440930660810659 -1.272234607784488 0.13332090131051236
H -3.2893410738045423 -0.5278555098363382 -1.3181070349736543
H -1.616468217932837 -0.5258406446167301 -1.971984826085415
H -2.1384024549565717 -1.8299162072349415 -0.9166494586306373
H -0.20701402594156504 0.29533235883107056 1.472255551973125
H 0.21125102019367667 0.9844674442363192 -1.4774753205387157
H -0.19506380756207958 2.1304814033481945 -0.19070289325174614
H 2.256032499159403 2.131799763725779 -0.6809061826424461
H 1.927161038308163 1.6246804679380698 0.9770996281987668
H 2.540217644579437 -0.2261630859711516 -1.3830064572323573
H 3.620325926358722 0.12696309611035975 -0.03281756212196897
H 2.4480746690621706 -2.070396536769165 0.26982981614062956
H 2.0337430002778127 -0.9324143734272047 1.5526583150627444
H 0.34645558816974226 -1.5349246482892374 -0.927578074290447
H -0.00661510487194615 -2.0852804643648506 0.714177139819983
*
