! wb97x-v def2-tzvp def2/J RIJCOSX DEFGRID2 scfconv7 GCP(DFT/TZ) printgap
%output
    printlevel normal
end
%cpcm
    smd true
    smdsolvent "water"
end
* xyz 0 1
C -2.492011085445817 -0.029102531601575887 -0.3220689532841209
C -1.2358034340884367 -0.710110899189305 0.19660875226939403
C 0.02544137999550714 0.01450597578118827 -0.17665024675023983
O 0.08482045410692346 1.082888652468798 -0.761483190809378
O 1.1210719488578862 -0.6632756864572763 0.22562063842747293
C 2.396057181876886 -0.038771598996928336 -0.0717325615943521
H -2.596697188300119 0.9776034127119693 0.09166449613372595
H -2.4755092786676176 0.0502117882338276 -1.4127416672534532
H -3.3737360905331553 -0.6082598652652016 -0.03591658455452447
H -1.1512045243315594 -1.737076648105406 -0.17674473405487331
H -1.2488997907119628 -0.7905509676297953 1.2907005067985875
H 2.471050043940422 0.9266504648167116 0.43431713747547274
H 2.510991584220331 0.09187562140909532 -1.1503063437761636
H 3.1499666881658874 -0.7265190860279179 0.3093167254713199
*
