! pbe def2-sv(p) def2/J RI DEFGRID1 loosescf d4 GCP(DFT/SV(P)) printgap
%output
    printlevel normal
end
* xyz 0 1
C -1.7835333037 -1.0491963767 -0.7065055556
C -1.0438927201 -0.4978302621 0.5224654658
H -1.7233908255 -0.6217971169 1.3755458644
C -0.7234258623 1.0000065377 0.3734275951
H -1.5752831773 1.4654983595 -0.1432933242
C 0.5599663295 1.2425553198 -0.4493102468
H 0.8519999542 2.2900405331 -0.294926017
C 1.708723792 0.3680690392 0.0861522951
H 2.5574018372 0.4349152802 -0.6041138493
C 1.2652250909 -1.1083274663 0.1346922588
H 2.0047981528 -1.6936120797 0.6956202527
O 0.086010923 -1.2767922203 0.889160702
O 1.1850344227 -1.667008225 -1.1383934162
O 2.1751379222 0.8174258833 1.3275932026
O 0.3837959931 0.9536332266 -1.8162710569
O -0.5073605417 1.6181505908 1.6232225989
O -3.0823572046 -0.4953299325 -0.692337919
H -1.8097106559 -2.141536489 -0.6171844077
H -1.2604175277 -0.7786231073 -1.6284096704
H 0.8959157644 -0.9887428958 -1.7739949716
H 1.4126592328 0.9697787557 1.912934817
H -0.0550472586 1.6930383075 -2.2604504545
H -1.3132116911 1.5732973122 2.157190819
H -3.5977920778 -0.8768561869 -1.416500054
*
