! pbe def2-sv(p) def2/J RI DEFGRID1 loosescf d4 GCP(DFT/SV(P)) printgap
%output
    printlevel normal
end
* xyz 0 1
C 1.63346661 1.29861e-05 -1.40593e-05
Br -0.3197609989 1.2154e-06 -7.0329e-06
H 1.9620701077 0.7965599866 -0.6582055697
H 1.9605754904 0.1718564032 1.0193428725
H 1.9615254718 -0.9686674864 -0.3604122438
*
