! pbe def2-sv(p) def2/J RI DEFGRID1 loosescf d4 GCP(DFT/SV(P)) printgap
%output
    printlevel normal
end
* xyz 0 1
C -2.2883480026 -0.8914672704 0.8108136457
C -0.833803311 -0.4063878403 0.7472954802
H -0.5367638661 -0.0658821016 1.7502125818
C -0.6292151052 0.7465856508 -0.2476417218
H -0.6840961139 0.347570023 -1.2700007919
C 0.7805284145 1.3062974335 -0.017189719
H 0.7344243476 1.9526809189 0.8735711523
C 1.7766555913 0.1767598777 0.2990472096
H 2.687723956 0.3879074358 -0.2755687611
C 1.247466948 -1.1915331211 -0.1682506108
H 1.9183365418 -1.9829380042 0.2039773626
O -0.0139806051 -1.5122001324 0.3712755025
O 1.2261210305 -1.1870312623 -1.5609227807
O 2.0170490074 0.1817464353 1.6829305506
O 1.2580570621 2.0251863539 -1.1237590957
O -1.5454986203 1.797880067 -0.0716000642
O -2.887908066 -1.026221321 -0.4538206499
H -2.8793018861 -0.1525757179 1.3542881965
H -2.3055121268 -1.8373538221 1.362140616
H 1.0663967136 -2.0822734723 -1.8979684768
H 2.7897115597 -0.3633510291 1.8916999325
H 0.6234093703 2.7275851267 -1.3300997812
H -2.418859605 1.5036663071 -0.3695421734
H -2.4851059418 -1.7742500668 -0.9145028522
*
