! pbe def2-sv(p) def2/J RI DEFGRID1 loosescf d4 GCP(DFT/SV(P)) printgap
%output
    printlevel normal
end
* xyz 0 1
C -2.971213985 0.6555477188 -0.7131077773
C -1.9430187534 0.4829058564 0.4077246344
H -2.4833200909 0.5496418143 1.3607591984
C -0.8453232915 1.5494160524 0.3799505748
C 0.2105027673 1.2316826309 -0.6763580047
C 0.8489321733 -0.1633316189 -0.4837677892
H 0.7365840314 -0.7284628155 -1.414371818
C 0.1251813665 -0.9625694185 0.6186143855
C -1.3535849057 -0.9107071464 0.3780424373
O -2.0269874826 -1.9037647573 0.1751660686
C 2.3270972617 -0.057146544 -0.1896186151
C 3.2267130381 -0.4651550275 -1.0713461449
C 2.7259123593 0.540136648 1.1260684836
H -2.4823142645 0.6574116544 -1.6839899506
H -3.6788036373 -0.1700047041 -0.6914432476
H -3.5127639512 1.5892454146 -0.5905250741
H -1.2950324384 2.5187736466 0.1609536869
H -0.37625725 1.6213875353 1.3618978572
H -0.2528766965 1.2773297462 -1.662336635
H 0.9870370661 1.9974449323 -0.6546173378
H 0.4678449028 -1.9980949825 0.6161303151
H 0.3295736814 -0.5199226177 1.5927139106
H 4.2840634436 -0.3753464198 -0.8880615604
H 2.945759106 -0.9066754637 -2.0126639753
H 3.7719876924 0.8327081908 1.1080020639
H 2.1209464293 1.4126732276 1.3593314948
H 2.5950717124 -0.1890691034 1.9246022282
*
