! wb97x-v def2-tzvp def2/J RIJCOSX DEFGRID2 scfconv7 GCP(DFT/TZ) printgap
%output
    printlevel normal
end
%cpcm
    smd true
    smdsolvent "water"
end
* xyz 0 1
C -1.9551118337677398 -0.14795286726479637 -0.008025883645068158
C -0.586269770459785 0.5273073284521025 0.029426984830930196
C 0.5383172746250006 -0.49285701536223203 -0.02009879156636955
O 1.8441173217086952 0.11668377585817567 0.047492642318080106
H -2.7597366042044085 0.5923391091933286 0.01797296828065044
H -2.0763457314890856 -0.7428172437366274 -0.9196688118029113
H -2.086418056155454 -0.8167687210001081 0.8493658689773718
H -0.4844736185071497 1.1265491717301543 0.9421765113009881
H -0.48341399418389763 1.2120927200101017 -0.8225362384851931
H 0.480843131098236 -1.1663661206987097 0.8417864095502232
H 0.4559463722053294 -1.1037585994894143 -0.9311110104202911
H 1.9239444050081722 0.6976913290570491 -0.7202257048580943
*
