! wb97x-v def2-tzvp def2/J RIJCOSX DEFGRID2 scfconv7 GCP(DFT/TZ) printgap
%output
    printlevel normal
end
* xyz 0 1
C 3.3816148496907306 -0.05270643870721717 0.15775050478220878
N 1.9429951012205338 -0.2782006275850644 0.27806379506982504
C 1.516716749843332 -1.4151895929216336 1.1053685911599074
C 1.0604971302236532 0.5151488352522566 -0.353041166389049
O 1.38385676680373 1.481903970366374 -1.0743057467866475
C -0.3930822167043787 0.19832919426692017 -0.1629308770163537
C -1.0555166977899375 -0.5998571400614565 -1.0967871003229952
C -2.4216943791937737 -0.8321247233679112 -0.964176356655657
C -3.127743089977851 -0.2672928211456969 0.09605922394328512
C -2.4652250443941712 0.5316089262082061 1.0258457187222985
C -1.098482193008235 0.7647781408689225 0.8996733852677854
H 3.567447221591918 0.8189793452833374 -0.46844087367442977
H 3.862547538743021 -0.9277370296187368 -0.2924722345355457
H 3.817810018390088 0.11628398377644375 1.1479990938402642
H 0.9212268672561197 -1.0855633721702707 1.9616603793752159
H 2.4105948006291875 -1.915634981240897 1.4801557597927653
H 0.9364162586976154 -2.1361190105524916 0.5223978398490636
H -0.5002621547449454 -1.0388160441767247 -1.9205844550196354
H -2.9348380832456122 -1.455175877664918 -1.689947333357475
H -4.193105198143884 -0.4487521662312144 0.19722179685291502
H -3.012774843958093 0.9739145041585984 1.8521671540327387
H -0.5779043811368323 1.3843304454775924 1.6241271681831455
*
