! wb97x-v def2-tzvp def2/J RIJCOSX DEFGRID2 scfconv7 GCP(DFT/TZ) printgap
%output
    printlevel normal
end
%cpcm
    smd true
    smdsolvent "water"
end
* xyz 0 1
C -2.2246531858750704 -0.04774234749321794 -0.06694809334546258
C -0.7684854904675225 -0.04782419618609799 0.3730354573502093
C 0.08105092236079058 -1.1771292340429527 -0.22198186890368593
C 1.5134184630732321 -0.7376254414320405 0.0936138798605332
C 1.4999009490367359 0.7941329738505751 -0.1285008863430772
C 0.008942191475140882 1.2164532651899351 -0.04362197463287895
H -2.295257554400232 0.016101974995386202 -1.159637351536173
H -2.7394578854651592 -0.9611254817353968 0.2514155981946087
H -2.769016246536104 0.8053354985952448 0.3538482403182727
H -0.7247117234340011 -0.13946869159920583 1.468051869293067
H -0.17006800438424804 -2.1626119498129475 0.18493968380041284
H -0.07595857940533791 -1.2101567231424692 -1.3095840771269833
H 1.7363023143623426 -0.9638478393135478 1.1430282764094768
H 2.266165627454119 -1.2453760825496456 -0.5174180174374853
H 2.116695925150893 1.3098412712910967 0.6129353495883912
H 1.9101165442790207 1.0420259596980548 -1.1120732150021273
H -0.15715445428775573 2.0450650754441 0.6514811998369041
H -0.34884164083087993 1.5442703213610118 -1.0270276590516776
*
