! pbe def2-sv(p) def2/J RI DEFGRID1 loosescf d4 GCP(DFT/SV(P)) printgap
%output
    printlevel normal
end
* xyz 0 1
C -3.4387671175 -0.5989372458 -0.1543703134
O -2.1504043961 -0.3080550108 -0.7028544512
C -1.237481324 0.2091006254 0.1154921865
O -1.4605524948 0.4541483072 1.2818170029
C 0.0828053866 0.397823675 -0.5932132775
C 0.7369946214 -0.9950393118 -0.7175054531
C 2.239285055 -0.8381755589 -0.9201338723
C 2.8941061548 -0.2597137943 0.3408390397
C 1.9253046849 0.6454730252 1.1106151148
C 0.9949415515 1.3818709708 0.1530340626
H -3.9125114378 0.3209515477 0.1902942148
H -3.3399394897 -1.2840877438 0.6883760599
H -4.0054833278 -1.0508175981 -0.9620755412
H -0.1387389266 0.7724009622 -1.5956805688
H 0.5552829318 -1.573663024 0.1908043912
H 0.2838524384 -1.5314343723 -1.5512902389
H 2.6821838305 -1.8053403192 -1.1589806583
H 2.4098399186 -0.1764873347 -1.7702895846
H 3.2196748505 -1.068881614 0.9962007266
H 3.7808060291 0.3081015938 0.0559933777
H 1.3159192835 0.0578703914 1.7994694884
H 2.4860558696 1.3658632965 1.7071592992
H 0.376539776 2.0863475469 0.712440395
H 1.5895309028 1.9464748723 -0.5652704825
*
