! pbe def2-sv(p) def2/J RI DEFGRID1 loosescf d4 GCP(DFT/SV(P)) printgap
%output
    printlevel normal
end
* xyz 0 1
C -1.9519899898 -1.2596344483 -0.354937066
C -1.262283987 -0.428344474 0.7408943103
H -1.9389309823 -0.4004224878 1.6016555282
C -0.9824892863 1.0185139477 0.2758489759
H -1.3753822758 1.1549715597 -0.7362963267
C 0.5299641168 1.2760117911 0.2336789668
H 0.9135453383 1.3752402626 1.2640778456
C 1.2375428977 0.0879532516 -0.4256780559
H 0.7949124566 -0.0942189639 -1.4142403704
C 1.0271349168 -1.1588047538 0.4431566116
H 1.8777510967 -1.2287986712 1.1386014854
O -0.0992428258 -1.048115471 1.2829697491
O 0.9598630564 -2.2764097034 -0.3775353701
O 2.6204118949 0.306770297 -0.5306802331
O 0.8415957955 2.4318471888 -0.5048796378
O -1.638164601 1.9822311703 1.0633556486
O -1.4003129747 -0.985334857 -1.6231834252
H -3.0177643232 -0.9945313365 -0.3486663044
H -1.8404234458 -2.3180951411 -0.0978504624
H 1.0400693257 -3.0847038985 0.151733737
H 2.7508435365 1.1592609298 -0.9756551647
H 0.2492752969 3.147531258 -0.2301091405
H -1.3599183117 1.8970052316 1.9874836408
H -1.7696952612 -1.6042178274 -2.2680776455
*
