! r2scan-3c def2/J RI DEFGRID2 scfconv6 printgap
%output
    printlevel normal
end
%cpcm
    smd true
    smdsolvent "water"
end
* xyz 0 1
C -2.4674547302 -1.1083703296 0.3451788674
C -1.0441035832 -0.5727918221 0.5715303052
H -0.8546520001 -0.4806242484 1.6529278015
C -0.8154552298 0.7974694009 -0.0878745059
H -0.9213787327 0.6770434888 -1.1743781079
C 0.6147535383 1.2464081909 0.21941736
H 0.7129195151 1.3799089403 1.3095182873
C 1.6213236924 0.1838513947 -0.2375735128
H 1.6295963769 0.1502602433 -1.3365315526
C 1.2213577435 -1.2088197889 0.2728191246
H 1.4053908546 -1.2295437135 1.3684327609
O -0.1338240038 -1.509269445 0.0248882219
O 1.9843081468 -2.1474657725 -0.3854835194
O 2.9028359372 0.4574903456 0.2628194921
O 0.9380177874 2.4456751755 -0.4402302223
O -1.6894326199 1.7847635663 0.3966945755
O -3.046114235 -0.4965277781 -0.7859023134
H -3.0725060073 -0.8969324313 1.2350146765
H -2.381507342 -2.1907966378 0.2124431804
H 1.6744351127 -3.038571341 -0.1564695634
H 3.1689414037 1.3348772985 -0.0540169203
H 0.2394567726 3.0910390958 -0.2524628452
H -2.5760122375 1.5994022638 0.0513364625
H -3.8342625761 -0.991376421 -1.0491133311
*
