! wb97x-v def2-tzvp def2/J RIJCOSX DEFGRID2 scfconv7 GCP(DFT/TZ) printgap
%output
    printlevel normal
end
* xyz 0 1
C -1.2557241937247727 -0.7356371655378976 -0.12461547763646837
C -0.00038361628776464613 -0.03415470017341958 0.36743590227475287
C 1.2672204531802675 -0.6941855197863565 -0.1376668252078074
O 0.031406079326352865 1.3383787809397367 -0.10143908041360138
H -1.271962183949555 -0.7660310163040527 -1.2197958937227493
H -1.2905327379288825 -1.763179986491173 0.25205976023681737
H -2.155004550139168 -0.21655653298060018 0.22479626717024506
H 0.005820004869560365 -0.02938761093122715 1.4678014529881724
H 1.2805096859077802 -0.7058199736629379 -1.2332904928550295
H 1.3208696252445358 -1.7269119352952118 0.21868161825784221
H 2.154558152820908 -0.1614585838850324 0.21797354439385525
H -0.786753142923143 1.7595891460137063 0.19257784639814535
*
