! pbe def2-sv(p) def2/J RI DEFGRID1 loosescf d4 GCP(DFT/SV(P)) printgap
%output
    printlevel normal
end
* xyz 0 1
C -2.8609910121 -0.0938541483 1.0754394382
C -2.283064863 -0.3690206196 -0.3117066068
H -3.1151262313 -0.6378373274 -0.9714232421
C -1.2713592297 -1.5125799119 -0.3166898304
C -0.1316018177 -1.2447755733 0.658443547
C 0.4991292975 0.1517996489 0.5130981452
H 0.3641811256 0.6907116989 1.4620669198
C -0.1637641244 1.0843419068 -0.4810071592
O 0.4386987625 2.048399324 -0.9249463059
C -1.5975507777 0.8661416178 -0.889973222
C 2.0244130464 0.1250088694 0.2581855513
C 2.7799587162 -0.4924669723 1.4318456252
C 2.3680681825 -0.5818090297 -1.0517002318
H -2.114516758 0.3367144812 1.7362471306
H -3.6888419991 0.6074820498 1.0006878526
H -3.2332015537 -1.0136182579 1.519478201
H -1.7594565804 -2.4500112904 -0.0459495207
H -0.8736679113 -1.620495673 -1.3284024515
H -0.5020196577 -1.3675179181 1.6760661094
H 0.6338608693 -2.0045845751 0.5085502616
H -2.145999263 1.7775405167 -0.6375003325
H -1.5853727243 0.81623942 -1.9829448926
H 2.3383070091 1.1706878384 0.1606793298
H 2.5490011667 0.0323723923 2.3558153536
H 3.8508515643 -0.4224598276 1.2580491305
H 2.5253824946 -1.5413984048 1.5578007085
H 1.8624073201 -0.0967063572 -1.8842502289
H 2.0791049287 -1.6293225671 -1.0303391822
H 3.4394125703 -0.5293819141 -1.2296013252
*
