! wb97x-v def2-tzvp def2/J RIJCOSX DEFGRID2 scfconv7 GCP(DFT/TZ) printgap
%output
    printlevel normal
end
%cpcm
    smd true
    smdsolvent "water"
end
* xyz 0 1
C -2.5611630271708963 -0.9757066310580133 0.00059918831601361
C -1.236128642282847 -0.2775626854254946 -0.0008416142106384253
C -1.156654539481149 1.120357030105698 -0.0006438709455822429
C 0.08905639837118592 1.721294529987229 0.00026449029420012323
N 1.2528251184801085 1.0463530435902981 0.0008209237478389405
C 1.185574120362135 -0.2952430546992461 0.00045002785731925284
C -0.035109510276197235 -0.9785015778854538 -0.0004059979749362478
C 2.474047041607562 -1.0623424750407733 2.031300233556338e-06
H -3.1341855635091416 -0.7105778087699494 0.8957111540886901
H -3.1597216242238173 -0.6686303895394589 -0.8635637158146905
H -2.440870380697987 -2.060972591348886 -0.025850453141306354
H -2.0568004190763354 1.7276252895593454 -0.0012547868836948653
H 0.16783687268827888 2.8067676264925496 0.00035788488313149094
H -0.038474255840351156 -2.0652233473225454 -0.001005818021465681
H 3.3304954137924643 -0.386251604671594 0.009284310878953098
H 2.5338446805735537 -1.7186261891758705 0.8748428987096118
H 2.54175422378815 -1.7034237939627492 -0.885583064728893
*
