! r2scan-3c def2/J RI DEFGRID2 scfconv6 printgap
%output
    printlevel normal
end
* xyz 0 1
C 2.1476229755 -0.0074804269 0.0185421905
C 0.8743172393 -0.6880480987 0.5074996891
C -0.4171016764 0.000282468 0.0179920349
C -0.4917076336 1.4544074182 0.5000858967
C -1.6267300623 -0.7766385295 0.5418369957
O -0.4046871426 0.0066986622 -1.4129493611
H 3.0118001718 -0.6281557329 0.241429626
H 2.285332208 0.9571253664 0.498693072
H 2.0924132371 0.142518749 -1.0569831978
H 0.8639387652 -0.7200586222 1.5977841718
H 0.8625600832 -1.7159216122 0.1374807207
H 0.2730108832 2.0457293127 0.0056060117
H -1.4615574789 1.8776698113 0.2497790954
H -0.3483082905 1.5048556816 1.5750867716
H -2.5502891749 -0.3258636897 0.1837525473
H -1.5852760068 -1.8135843854 0.2143222318
H -1.637049779 -0.7601058151 1.627975825
H -1.1789419652 -0.4622706767 -1.7453953744
*
