! wb97x-v def2-tzvp def2/J RIJCOSX DEFGRID2 scfconv7 GCP(DFT/TZ) printgap
%output
    printlevel normal
end
%cpcm
    smd true
    smdsolvent "water"
end
* xyz 0 1
C 4.123758307824536 -0.07570702197592213 0.0003912039268922611
C 3.749110252612448 1.2644746338343276 0.0001484867890853859
C 2.400016421299872 1.6129164391745556 -0.0001403177867246549
C 1.4378678696821021 0.6163548784704797 -0.00020640367670500537
C 1.8113318991506038 -0.7238094905128803 -2.6693745358353902e-05
C 3.1520310917206067 -1.0742552039738857 0.0003062707383588617
O 0.8729183976794856 -1.7467273627562456 -0.00020490590196830152
C -0.45627152791105435 -1.3592318058006185 -0.00013239868361844453
C -1.4160228291359283 -2.358181887785733 7.966783025954399e-06
C -2.7646159873719904 -2.014107610238248 0.00010422807330468664
C -3.1541244504653143 -0.6806615827159155 8.381204947972472e-05
C -2.175946570292513 0.3082987969118658 -6.851282376097378e-05
C -0.8212831011370199 -0.01227333253893652 -0.000219445341096468
O 0.1039644267587517 1.006915696399554 -0.00047696499531731454
Cl -2.640974540045996 1.9962147837163686 -9.547381924790259e-05
H 5.172239643342177 -0.35240008951686125 0.0006494631573041609
H 4.501704025201675 2.0451238119033435 0.00018812519932954357
H 2.0813363624415446 2.6499654381003546 -0.0003216831018424558
H 3.4194411657768207 -2.1256983191151497 0.0004814026040940723
H -1.094536751920541 -3.393752292911077 3.617744665166067e-05
H -3.5186285636293633 -2.792948882464029 0.000202398691623812
H -4.201113391403446 -0.40238715777848805 0.00019040775236296527
*
