! r2scan-3c def2/J RI DEFGRID2 scfconv6 printgap
%output
    printlevel normal
end
%cpcm
    smd true
    smdsolvent "water"
end
* xyz 0 1
C -2.6545985711 -0.4073818133 1.0617899497
C -1.7587377417 0.0099229699 -0.0711372292
O -2.1768744766 0.1185517022 -1.2083714993
C -0.3094886413 0.2548599841 0.2847538279
C 0.4289501559 1.0069406764 -0.8220995816
C 1.8956463501 1.2046731194 -0.4547579543
C 2.5688234594 -0.1405093944 -0.199691732
C 1.8366313843 -0.8991656354 0.9027951805
C 0.3694819248 -1.1026502703 0.5352111263
H -2.1440945983 -0.3839934882 2.0176035172
H -3.5196167763 0.2520575533 1.0851528909
H -3.0264414503 -1.4108982894 0.8635913578
H -0.2741966822 0.8379479849 1.2104873479
H 0.3489538362 0.4369505669 -1.7504725693
H -0.0543539184 1.971990403 -0.9905098759
H 2.4071345913 1.7312827764 -1.2621179421
H 1.9638467715 1.8217781241 0.4440197442
H 2.5535578666 -0.73152225 -1.1180640268
H 3.6114776403 0.0129563684 0.0839003271
H 2.3079141501 -1.8704137035 1.0623128351
H 1.9017415341 -0.3349215475 1.835382946
H 0.2997251252 -1.7035162926 -0.3744627707
H -0.1428453678 -1.6379582786 1.3353335949
*
