! wb97x-v def2-tzvp def2/J RIJCOSX DEFGRID2 scfconv7 GCP(DFT/TZ) printgap
%output
    printlevel normal
end
%cpcm
    smd true
    smdsolvent "water"
end
* xyz 0 1
C -2.6405782548628993 1.5180501581540573 0.11112496072069378
C -1.967086522443215 0.1573992701310716 -0.011777471396601421
C -0.45852508745091003 0.1753217630192961 0.009792757973887142
C 0.29774129461968235 1.3411910747276221 0.13323487716868565
C 1.6931326650443626 1.3147928199790913 0.14904279372098114
C 2.3606762725772685 0.1000708585543552 0.037628646915384395
C 1.63427995590052 -1.0816288198118444 -0.0869543514413232
C 0.24275758649891593 -1.037203120231181 -0.09767997800287032
O -0.5124015641531432 -2.1858773820569444 -0.21372917970194688
H -2.3588862562173745 2.1849208827309208 -0.7102208541212294
H -2.383876561233996 2.0130962038974234 1.053280308107223
H -3.7273889181694813 1.3973743338360274 0.08399481384407213
H -2.2956022160040885 -0.3301182983836415 -0.9390956644280798
H -2.318922943304587 -0.4983273228570472 0.7955385474418735
H -0.21160327604677218 2.2950233404441893 0.21997970839974343
H 2.250469397338803 2.240572552999516 0.24751926714064912
H 3.4455245026694765 0.06342505017513171 0.04730034456184733
H 2.139151558772394 -2.0403544051556137 -0.1745698002701725
H 0.08473949510082783 -2.945233740012024 -0.2666979308206411
*
