! r2scan-3c def2/J RI DEFGRID2 scfconv6 printgap
%output
    printlevel normal
end
* xyz 0 1
C -2.8131741538 1.401047525 -0.0963947854
C -2.3780633657 -0.0512997043 0.05018049
C -0.8902315022 -0.2896740332 0.044866764
C -0.4294404991 -1.6009881742 0.1547202555
C 0.9230209524 -1.8762828563 0.155490036
C 1.8489339525 -0.8522739714 0.0464596298
C 1.4025955605 0.4567544633 -0.0632237786
C 0.037205193 0.7315388523 -0.0630508567
O 2.25767322 1.5128189114 -0.1743949678
H -2.4338947528 2.0039138465 0.7251439251
H -3.8989987551 1.4597612007 -0.0888263434
H -2.4556972428 1.8191358205 -1.0342667564
H -2.8162628283 -0.6390357584 -0.7615573741
H -2.7805973195 -0.4519922247 0.9851162276
H -1.1431317676 -2.4071564128 0.2398991659
H 1.2665323653 -2.8963647113 0.240999975
H 2.9069195437 -1.0711205199 0.0465920934
H -0.2610279671 1.7632552085 -0.1499654327
H 3.1765517445 1.206222118 -0.1643198556
*
