! wb97x-v def2-tzvp def2/J RIJCOSX DEFGRID2 scfconv7 GCP(DFT/TZ) printgap
%output
    printlevel normal
end
* xyz 0 1
C 2.0240306502600167 -0.8224944791509822 -0.36121844724087415
O 1.1254780506812883 0.3322592220919327 -0.40021833347722746
S -0.39841463283790113 0.03249405510751634 0.10426006289341891
O -0.3767265110845858 -0.3286310840547772 1.5321051830512895
O -1.0380757491848507 -0.9191610154990064 -0.820094951849897
C -1.0557203584026238 1.6746671228295107 -0.12357976219652554
H 2.9736767060588725 -0.4401636085012164 -0.7325410900578633
H 1.653738391182861 -1.613884639265321 -1.0174952172456007
H 2.136732125701498 -1.180394736234867 0.6650552406457094
H -0.497903752128021 2.363625139035608 0.5134842280501163
H -0.9674905514957812 1.9404228632222353 -1.1787352242258289
H -2.105118275266728 1.6294899038999282 0.1786264745902001
*
