! r2scan-3c def2/J RI DEFGRID2 scfconv6 printgap
%output
    printlevel normal
end
* xyz 0 1
C -2.5620866976 -0.8786508974 0.2577907052
C -1.1388560765 -0.4311676994 0.6181631338
H -1.0482031179 -0.3588101478 1.7128380399
C -0.8285319982 0.9476189186 0.0212967123
H -1.0502648428 0.928989939 -1.0557366796
C 0.6567774152 1.2822415444 0.2102096964
H 0.8414580279 1.4252212992 1.2899441903
C 1.5435434403 0.1362008883 -0.2988613914
H 1.4174706478 0.0277849163 -1.3812878211
C 1.1030879235 -1.1753527421 0.3690988839
H 1.2555031098 -1.0859175873 1.4692046467
O -0.2606199915 -1.4247286069 0.122099829
O 1.8347688918 -2.2197791497 -0.1523833894
O 2.9004470007 0.4308304911 -0.1000882126
O 0.9277037667 2.4802604277 -0.4761806967
O -1.6434032887 1.8826344069 0.6805450745
O -2.7307682319 -1.0515731436 -1.1236496517
H -3.2590111192 -0.0985728628 0.566470132
H -2.7858358028 -1.808157811 0.7948349977
H 1.4262477336 -3.0642480658 0.0964831561
H 3.144408792 0.294304565 0.8271192054
H 1.8873978508 2.5610969258 -0.5899327156
H -1.4465757382 2.7619979515 0.3239167432
H -2.0922441491 -1.7142796157 -1.4260580813
*
