! pbe def2-sv(p) def2/J RI DEFGRID1 loosescf d4 GCP(DFT/SV(P)) printgap
%output
    printlevel normal
end
* xyz 0 1
C -1.6912503539 -1.3553519237 -0.5627872945
C -1.1488843544 -0.4844358933 0.5810912322
H -1.9080595155 -0.4291071682 1.3681930058
C -0.8645355734 0.9621142421 0.1330062656
H -1.20457749 1.0844246385 -0.9073591091
C 0.6423993221 1.2723818727 0.2034169961
H 0.9345729117 1.3852707935 1.2534882653
C 1.4172049992 0.09864647 -0.4018653406
H 1.0374965075 -0.0994477513 -1.4162901088
C 1.1616076061 -1.1515289683 0.4648729702
H 1.9517473427 -1.2076168856 1.2297306731
O -0.0280664171 -1.0856554841 1.2118482939
O 1.2015680026 -2.2649310574 -0.3764786043
O 2.7821530272 0.4190441379 -0.4442530929
O 0.9294538335 2.504804679 -0.4013255079
O -1.5923134201 1.8320176075 0.9656511605
O -2.8508738161 -0.7458794712 -1.0778895975
H -1.9128533917 -2.3467810483 -0.1512103443
H -0.9267818257 -1.4596558781 -1.3436848247
H 1.1687635996 -3.081520246 0.1447094834
H 3.2678331328 -0.2796097345 -0.906565893
H 0.9265174862 2.4107157631 -1.3650602938
H -1.319861396 2.7428738135 0.7741817212
H -3.2685486397 -1.3434977082 -1.7144900785
*
