! r2scan-3c def2/J RI DEFGRID2 scfconv6 printgap
%output
    printlevel normal
end
%cpcm
    smd true
    smdsolvent "water"
end
* xyz 0 1
C 1.586986013 1.5182250812 1.339110108
C 0.2484496528 0.7801914921 1.4375494002
H -0.2198980623 1.1369088126 2.3581433784
C 0.2474157533 -0.7787271225 1.438531731
H -0.2199143858 -1.1338944563 2.3602487445
C 1.5850460042 -1.5184362969 1.338847022
O 2.3060461898 -1.2544463118 0.1584638857
S 3.3987217116 -0.0008170705 0.1989259807
O 3.9317239961 -0.0012332924 1.547374633
O 2.3079242452 1.2540853646 0.1586901962
C -0.7125333772 -1.1148851881 0.2623418421
C -0.069626778 -0.6720810882 -1.0376046875
C -0.0678882773 0.6686153811 -1.0389327311
C -0.70989636 1.1158339823 0.2599627191
C -1.7721029851 0.0018896098 0.4110633644
Cl -2.978098801 0.0018048575 -0.890899954
Cl -2.6304398594 0.0042971245 1.9439599745
Cl -1.3144547171 2.7612232417 0.2629607404
Cl 0.5062631905 1.7306691853 -2.220486791
Cl 0.5015336888 -1.7381202367 -2.2169762975
Cl -1.3209999171 -2.7586576248 0.2694574268
H 2.2129954081 1.2555181648 2.200585919
H 1.3936422452 2.5937323019 1.3559684773
H 2.2116133797 -1.257541548 2.2004071929
H 1.3900700541 -2.5936767317 1.3547566704
*
