! r2scan-3c def2/J RI DEFGRID2 scfconv6 printgap
%output
    printlevel normal
end
* xyz 0 1
C -2.7803769296 -0.4049101295 9.83343e-05
O -1.789832347 0.6049846651 -6.99184e-05
C -0.4751022935 0.2331649601 -3.78217e-05
C -0.0196225684 -1.07993525 -7.4525e-05
C 1.3429103132 -1.3335754195 -1.6251e-06
C 2.2569666235 -0.2968745001 4.98375e-05
C 1.8018650416 1.0132086755 2.65559e-05
C 0.4485567715 1.2794864389 -7.2899e-06
H -2.7083567369 -1.029020232 0.8947478908
H -2.7086098833 -1.0291104292 -0.8945160341
H -3.7297620818 0.1258296232 0.0002204318
H -0.7101929791 -1.9078336975 -0.000104299
H 1.6861161567 -2.3572200564 -2.254e-05
H 3.3155472787 -0.5046121923 7.16014e-05
H 2.5055458312 1.8315460891 5.71667e-05
H 0.0740249806 2.291059147 1.85164e-05
*
