! pbe def2-sv(p) def2/J RI DEFGRID1 loosescf d4 GCP(DFT/SV(P)) printgap
%output
    printlevel normal
end
* xyz 0 1
C 1.7164429314 0.4461205995 0.6064168711
C 0.8969128703 0.3470204944 -0.6767817113
C -0.5662612534 -0.0846544045 -0.4729840834
H -1.0518319854 -0.0944769791 -1.4568962152
C -1.3378219328 0.8578961036 0.450018428
O -0.6642595222 -1.4296932432 -0.0350858101
H 1.731394915 -0.5041661634 1.1349257476
H 1.3212898084 1.2128644756 1.2670162405
H 2.7429291829 0.7076267308 0.3618693407
H 1.3642935237 -0.3807796221 -1.3438851002
H 0.8946757349 1.3133222645 -1.1830499988
H -0.9296724707 0.8313554979 1.4571166194
H -1.2827998064 1.8743914226 0.0721928337
H -2.3807654235 0.5538953115 0.49353068
H -0.3172565663 -1.4851938767 0.8662462298
*
