! pbe def2-sv(p) def2/J RI DEFGRID1 loosescf d4 GCP(DFT/SV(P)) printgap
%output
    printlevel normal
end
* xyz 0 1
C -2.3936017455 -1.1476613903 -0.3490439487
C -1.0676060754 -0.6305357153 0.2337576093
H -1.1137302377 -0.6317846455 1.3360722481
C -0.7759184953 0.8066309732 -0.2319310996
H -0.8100577373 0.8361172757 -1.3327302723
C 0.6307496137 1.2386803331 0.212776778
H 0.6338520156 1.3098623174 1.3142788512
C 1.6660986077 0.1938330135 -0.2264580138
H 1.7003507746 0.1745174403 -1.3210300362
C 1.2270788943 -1.1961650229 0.2940761559
H 1.2056434653 -1.1812035832 1.39768545
O -0.0586884093 -1.5170603245 -0.2029060799
O 2.0938990538 -2.2060323464 -0.0501609918
O 2.9699265813 0.5036484054 0.1757013706
O 0.9760330332 2.4804845805 -0.3448526726
O -1.6833567599 1.7301731487 0.3162317913
O -3.5001702615 -0.4040748915 0.0968409432
H -2.4869385296 -2.2102569233 -0.1081003537
H -2.3629367042 -1.0441311202 -1.4360938374
H 2.1285518717 -2.3025983687 -1.0147392767
H 3.0059247772 0.6333391829 1.1343999085
H 0.2617451185 3.1073786119 -0.152507397
H -2.5880685197 1.4221772242 0.1281212343
H -3.7370286409 -0.6721670589 0.9961357064
*
