! wb97x-v def2-tzvp def2/J RIJCOSX DEFGRID2 scfconv7 GCP(DFT/TZ) printgap
%output
    printlevel normal
end
* xyz 0 1
C -1.0015312025397918 -1.599340137499754 0.007710121260180011
S -0.48036503194441754 0.11304245352908797 0.06267958807913687
O -0.4643109792974817 0.6113419137691767 1.4394776871096104
O -1.1374476852329882 0.8918593692165587 -0.988525219607913
Cl 1.5653034211642547 -0.08494552059684286 -0.5264050698106832
H -0.39569280401366663 -2.162067872406952 0.7206127754465019
H -2.0568378029379955 -1.5899485575029328 0.30194522928102663
H -0.8780014105643993 -1.9584474385059303 -1.0158123446452445
*
