! r2scan-3c def2/J RI DEFGRID2 scfconv6 printgap
%output
    printlevel normal
end
%cpcm
    smd true
    smdsolvent "water"
end
* xyz 0 1
C -0.1784047771 -2.3303647229 -0.0138945423
C 0.5002731964 -1.0060606694 -0.004779656
C 1.8929319401 -0.9594533771 -0.0044409234
C 2.5893831977 0.2337318877 0.0024431772
C 1.9050395035 1.4435192917 0.0080413987
C 0.5297561014 1.4366633259 0.0070228442
C -0.1765843232 0.227665998 0.0013738885
N -1.5927231296 0.3218077074 0.0016105754
O -2.1018405887 1.4384092562 -0.0274145112
O -2.2730468943 -0.6933528024 0.0308469108
H -0.8072471386 -2.4456828581 0.8678010626
H -0.8405695621 -2.4193346216 -0.8738781193
H 0.5553081763 -3.1303819764 -0.0396556696
H 2.4372981076 -1.8907609337 -0.0095656472
H 3.6677934328 0.2246910498 0.0033704978
H 2.4410528839 2.3781775583 0.0135604552
H -0.0343031822 2.3563706895 0.0119532424
*
