  10
        -10.75663164
 C         -1.2045914805       -0.2547264984        0.0160241256
 N         -0.0000576772        0.5474469218       -0.0862038837
 C          1.2045767776       -0.2546832028        0.0159971332
 H         -1.2348743311       -0.9450199720       -0.8272029703
 H         -2.0719502223        0.3995431200       -0.0366421469
 H         -1.2581870115       -0.8444037855        0.9445168295
 H         -0.0000884785        1.2415974827        0.6552523183
 H          2.0716012151        0.3998844878       -0.0356335476
 H          1.2357210825       -0.9441010316       -0.8280364310
 H          1.2587544496       -0.8448338905        0.9440968407
  10
        -10.75199996
 C         -1.2229188049       -0.2523509813        0.0160996163
 N          0.0041662517        0.5370002564       -0.0844947222
 C          1.2185698839       -0.2494702388        0.0157107730
 H         -1.8208945816       -0.0976121292       -0.8845236563
 H         -1.8271803286        0.0294279351        0.8794459409
 H         -0.9972778782       -1.3166121882        0.0949015232
 H          0.0129846654        1.2544549189        0.6311137916
 H          2.0738943499        0.4194415841       -0.0547452506
 H          1.2540166192       -0.9462650565       -0.8217690516
 H          1.2983836719       -0.8254232743        0.9506892252
