! pbe def2-sv(p) def2/J RI DEFGRID1 loosescf d4 GCP(DFT/SV(P)) printgap
%output
    printlevel normal
end
* xyz 0 1
C -2.3844716054 -1.1757299158 -0.2730955246
C -1.0642035961 -0.6094022195 0.2614801339
H -1.1072806746 -0.5540499906 1.3611504699
C -0.7782802649 0.8031769524 -0.2794547204
H -0.8002403879 0.7613281574 -1.3834484872
C 0.6222311627 1.2373522527 0.1708940168
H 0.6146981924 1.3574709756 1.2611696735
C 1.6752693632 0.1776631556 -0.1984454308
H 1.7812154781 0.117871803 -1.2935246149
C 1.2400980048 -1.2078895025 0.2945745164
H 1.2676952546 -1.203711329 1.4036598101
O -0.0653230713 -1.5220483949 -0.1442701242
O 2.0906656572 -2.1527588116 -0.2327830508
O 2.9082849149 0.4855920927 0.3954239346
O 1.0070013198 2.4915908315 -0.332457798
O -1.6997737444 1.7514609385 0.1903860139
O -3.4516982063 -0.3852522119 0.1955543831
H -2.4678909877 -2.2103155505 0.0766497215
H -2.3414041631 -1.1769207256 -1.3690595248
H 1.7745351178 -3.0424962673 -0.0071669946
H 3.083970074 1.4297534973 0.2473441857
H 0.758745153 2.5664789179 -1.265230362
H -2.584984026 1.34478439 0.2096083766
H -4.2911636748 -0.7697707322 -0.0951873808
*
