! pbe def2-sv(p) def2/J RI DEFGRID1 loosescf d4 GCP(DFT/SV(P)) printgap
%output
    printlevel normal
end
* xyz 0 1
C -2.268400458 -0.6872060378 -0.8098506094
C -1.1139745316 -0.5716869089 0.1856614783
H -1.4279379588 -1.0022691028 1.1520348218
C -0.7244132502 0.9032409983 0.4266235372
H -1.5660515784 1.5348047908 0.1214700202
C 0.4985788831 1.2638003131 -0.4297848614
H 0.7830510934 2.3023031245 -0.1966920373
C 1.6848809548 0.3678234655 -0.0117998662
H 2.411177265 0.2979278918 -0.8284640577
C 1.193408267 -1.0683506929 0.2847741159
H 1.077896182 -1.1784937136 1.3845600283
O -0.0444143968 -1.3385379156 -0.3347800937
O 2.1192420864 -1.9651364935 -0.2103623801
O 2.3780924872 0.9196678593 1.073847244
O 0.1360571867 1.1377823322 -1.7774252218
O -0.3752536525 1.1478035739 1.7709399254
O -3.4093167144 -0.0992128748 -0.2290941817
H -2.4289833356 -1.75074825 -1.0204573632
H -1.9738400146 -0.1768065982 -1.733042986
H 1.7384658313 -2.8577902495 -0.2106930007
H 1.7417492342 1.098816763 1.7866193886
H 0.8935783807 1.3509874046 -2.3410303652
H -1.175862448 1.1948036862 2.312211999
H -4.1440419005 -0.1504935444 -0.8565354907
*
