! r2scan-3c def2/J RI DEFGRID2 scfconv6 printgap
%output
    printlevel normal
end
%cpcm
    smd true
    smdsolvent "water"
end
* xyz 0 1
C -0.6778956479 -1.2404158928 8.46468e-05
O -1.2573038162 -2.3000808037 -4.86799e-05
N -1.3338712379 -0.0312563489 -1.02968e-05
C -0.7352276291 1.2072221309 0.0001687914
O -1.3633920122 2.2387664127 -0.0001267524
N 0.6399092672 1.1708828161 9.67162e-05
C 1.413190935 0.0332399165 -3.45459e-05
O 2.6206336322 0.0610757509 -4.7644e-05
N 0.6939870393 -1.1394271926 4.70992e-05
H -2.3495447423 -0.0551840836 -0.0001728119
H 1.1266982009 2.0626372515 -0.0001811361
H 1.2226792239 -2.0069843207 -0.0005688478
*
