! r2scan-3c def2/J RI DEFGRID2 scfconv6 printgap
%output
    printlevel normal
end
* xyz 0 1
C -1.7190375469 -0.5657619188 -0.6428137056
C -1.1979454577 0.0543964645 0.6476683777
C 0.0494649603 0.916749674 0.4020076156
C 1.1648263176 0.1224592214 -0.0284431634
N 2.0564850276 -0.5161796663 -0.3609541896
H -2.5957243055 -1.1757541038 -0.441494154
H -1.9948322271 0.2071187824 -1.3570325185
H -0.9580730637 -1.1972245951 -1.097362628
H -1.9696144084 0.6871703797 1.088239882
H -0.956362267 -0.7342223793 1.3630529091
H 0.3419437292 1.4321864293 1.3201501652
H -0.1555178775 1.6638996431 -0.3688908931
*
