! pbe def2-sv(p) def2/J RI DEFGRID1 loosescf d4 GCP(DFT/SV(P)) printgap
%output
    printlevel normal
end
* xyz 0 1
C -2.2011800954 -1.008541249 -0.4265471612
C -1.1619537156 -0.2386885497 0.3955522654
H -1.6715065952 0.1634939427 1.2794424715
C -0.5719688189 0.9134969288 -0.4397207624
H -0.3916991112 0.5626516532 -1.4632212376
C 0.7703444239 1.3157788517 0.1983621503
H 0.6265631692 1.446312449 1.2788850768
C 1.7582776073 0.161820886 -0.0403383518
H 2.0955191386 0.1790692429 -1.082676252
C 1.0380969736 -1.1962807177 0.1793359831
H 1.6836980332 -1.8287291562 0.8053734206
O -0.1420419644 -1.0762211656 0.9348436774
O 0.8203788605 -1.776601781 -1.0689925381
O 2.9253486716 0.2696602557 0.7272291496
O 1.2457153902 2.5533863795 -0.2516732436
O -1.4685051206 1.9812696009 -0.5672325157
O -2.9370163004 -1.85329342 0.4285753342
H -1.6909435493 -1.5820650521 -1.2084814837
H -2.8539469156 -0.2603501452 -0.8953842976
H 0.5925358117 -2.7133909373 -0.9651792555
H 2.7019979809 0.4111075326 1.6588552545
H 1.369529645 2.5350841554 -1.2112677572
H -1.513466186 2.4781802198 0.2629920731
H -3.6044482447 -2.325579842 -0.0886055346
*
