! wb97x-v def2-tzvp def2/J RIJCOSX DEFGRID2 scfconv7 GCP(DFT/TZ) printgap
%output
    printlevel normal
end
* xyz 0 1
C -3.4334756848536654 0.5623535963571699 0.082703045336856
C -1.936615236236443 0.47003496757702645 0.09806945833023875
C -1.1405401016531846 1.5145845786881793 -0.16468427483409687
C 0.35806385468495777 1.466020480072759 -0.18212127709838363
C 0.8870282248357303 0.028897142036812384 -0.27884135488895173
H 0.6406863490824871 -0.35078049603584377 -1.2801813460203535
C 0.1326719372899864 -0.8270989159772985 0.749458110172434
C -1.3576371022174156 -0.884581972824122 0.4276618974800459
H -1.8933963427807508 -1.2999291830221564 1.2900242020728216
O -1.6411340763487103 -1.8283641243262398 -0.6439637936320615
C 2.386871230442667 -0.06856192487418271 -0.12124935076410008
C 3.1369499258127185 -0.6313800723195094 -1.074969932833896
C 2.9974395699334937 0.4673843830063197 1.142161912353657
H -3.7697613398759873 1.5684839479534654 -0.18174933732144388
H -3.849197132293474 0.3032015637549678 1.0645381429287244
H -3.863767511901101 -0.14424245084447448 -0.6367420168229677
H -1.5980233856479547 2.4808600066396407 -0.376687694902335
H 0.7365012982397007 2.0653491508230246 -1.0196034521413608
H 0.7401178468895185 1.9485213072210303 0.7295110099470734
H 0.5313227789352573 -1.8470808180716687 0.7812962479791248
H 0.25289234937272126 -0.39192725253151944 1.7497279137254216
H -1.3547773226337836 -1.414030638848895 -1.4693142112310094
H 4.213988542179284 -0.7300589848838854 -0.9640966402630484
H 2.6914170255807592 -1.015030192461826 -1.9896927094779688
H 2.5086843188762784 0.05281300398229438 2.0311417015533118
H 4.063629995000262 0.23267364760635115 1.1918339320189824
H 2.8866706474934407 1.5563033929671848 1.2034378022019685
*
