! pbe def2-sv(p) def2/J RI DEFGRID1 loosescf d4 GCP(DFT/SV(P)) printgap
%output
    printlevel normal
end
* xyz 0 1
C -2.0895283805 -1.3476155655 -0.136915348
C -1.0118179154 -0.503673523 0.562783746
H -1.4371956713 -0.1257489253 1.5013396053
C -0.6089219946 0.6993342329 -0.2985998415
H -0.4641414666 0.3853216892 -1.344437427
C 0.7278623108 1.2422024566 0.2160694145
H 0.6408508286 1.420115611 1.3003487099
C 1.8154972958 0.1854737631 -0.0411049314
H 2.18079803 0.3005574941 -1.0670497025
C 1.2237722686 -1.2400885392 0.0771771967
H 1.9675416645 -1.8828119539 0.5699048946
O 0.1135044092 -1.2906979128 0.942227529
O 0.9258646427 -1.6976682709 -1.2027695108
O 2.9329890273 0.3672839534 0.7875127271
O 0.9869627164 2.4520805344 -0.4522372214
O -1.6376597126 1.6526622876 -0.2211460835
O -3.3444309432 -0.7162259394 -0.1111473981
H -2.2072659509 -2.2927921125 0.3985878777
H -1.7808749143 -1.5548660329 -1.1710994995
H 0.7648026566 -2.6535994857 -1.1919013597
H 2.6850943624 0.2313772056 1.7142236247
H 1.8619668683 2.7791280253 -0.1999094534
H -1.2977345484 2.4908843365 -0.5723138898
H -3.2300283975 0.2124055411 -0.3705652523
*
