! pbe def2-sv(p) def2/J RI DEFGRID1 loosescf d4 GCP(DFT/SV(P)) printgap
%output
    printlevel normal
end
* xyz 0 1
C -2.1016995838 -1.2221101326 -0.164547575
C -1.2349544366 -0.3680515256 0.7845090655
H -1.8098930952 -0.2247203856 1.7054504116
C -0.9137437681 1.0062642092 0.1619270966
H -1.196457014 0.9968863902 -0.8977424088
C 0.5914442447 1.2874503586 0.2514816713
H 0.892291323 1.3691802893 1.3099812688
C 1.3523172597 0.1198195519 -0.3822687253
H 1.0300759196 0.0185106904 -1.4293244441
C 1.0182191041 -1.1781511403 0.3710732335
H 1.8689538949 -1.4099086017 1.0256292969
O -0.0669599931 -1.0454529099 1.2521133721
O 0.8151093394 -2.1964268233 -0.562653304
O 2.7416450746 0.3027406681 -0.3156265677
O 0.9391657546 2.4632359929 -0.4372574279
O -1.6558708006 2.0552997101 0.7312776012
O -1.6350396788 -1.2723171582 -1.4882755861
H -3.091501628 -0.7637019698 -0.2164703112
H -2.1941915601 -2.2294895095 0.2589184275
H 0.867250279 -3.0647078029 -0.133652151
H 2.9492369903 1.1729941328 -0.6910137135
H 0.2483355028 3.1264516062 -0.2851114632
H -1.5052062105 2.087321074 1.6881201918
H -0.7704070102 -1.7255474511 -1.4925217613
*
