! pbe def2-sv(p) def2/J RI DEFGRID1 loosescf d4 GCP(DFT/SV(P)) printgap
%output
    printlevel normal
end
* xyz 0 1
C -2.5349031353 0.4938962588 -1.2427235653
C -2.0278837181 0.4271274277 0.2040143966
H -2.9070616603 0.4751268275 0.8572900725
C -1.0750642197 1.5687238658 0.5502074933
C 0.2550880332 1.4877090823 -0.2060862596
C 0.7652850203 0.0421539788 -0.3555722125
H 0.4749610248 -0.337558733 -1.3409436798
C 0.0995605277 -0.8805580898 0.6816162674
C -1.3809993123 -0.9194633299 0.4427955183
O -2.0181816019 -1.9563711866 0.4208986015
C 2.2691304969 -0.070313812 -0.2599903842
C 2.9665994469 -0.6485500921 -1.2262799446
C 2.9383941335 0.4807128973 0.9641366528
H -1.7080049429 0.4626008137 -1.9462603772
H -3.1895947346 -0.3513889361 -1.4426295269
H -3.0910285641 1.4145153247 -1.3967576822
H -1.5587748411 2.5202967468 0.3265094899
H -0.8857321785 1.54583652 1.6248717415
H 0.1451759401 1.9247725751 -1.198756939
H 0.9861492413 2.0906766346 0.330209232
H 0.50637596 -1.891399708 0.6211646184
H 0.2706674365 -0.4992049318 1.6896592128
H 4.0367328468 -0.7545971575 -1.1695898764
H 2.5001315593 -1.0382754456 -2.1154707135
H 2.3381641439 0.3106020927 1.8536813257
H 3.9109497464 0.0169865413 1.1029979074
H 3.0941752265 1.5539229295 0.8600288377
*
