  17
        -16.83087505
 C         -2.0809558815        0.0098216427        0.1313951743
 C         -0.7652492041        0.6382625003       -0.3146080406
 C          0.4703298327        0.0009424916        0.3316266708
 C          0.6725927301       -1.4399800641       -0.1322352637
 C          1.7130275767        0.8294201892        0.0074491711
 H         -2.9200374896        0.5592433440       -0.2890144670
 H         -2.1648964287        0.0329530026        1.2158502136
 H         -2.1548691887       -1.0229606252       -0.1981769427
 H         -0.6774185238        0.5645842325       -1.4011042211
 H         -0.7811266686        1.7001177909       -0.0569105897
 H          0.3284083565        0.0002561268        1.4186980165
 H          1.5771849883       -1.8536033303        0.3078063116
 H          0.7700180477       -1.4774137145       -1.2153146251
 H         -0.1635306267       -2.0678936938        0.1624531401
 H          1.5991971467        1.8507411849        0.3637250622
 H          1.8774602544        0.8572796026       -1.0677027572
 H          2.5934797188        0.3982932119        0.4781227996
  17
        -16.82971079
 C         -1.7285649416        0.3490597773       -0.5884269328
 C         -0.8818310081        0.3416274082        0.6799108308
 C          0.5843592910       -0.0711057223        0.4815975583
 C          0.7114017205       -1.5023668617       -0.0370121045
 C          1.3324189145        0.8949556845       -0.4353370778
 H         -2.7449222300        0.6534764718       -0.3486276919
 H         -1.7695089592       -0.6399867946       -1.0362491144
 H         -1.3307875504        1.0477402667       -1.3192046370
 H         -0.9005517656        1.3415734064        1.1207432775
 H         -1.3364325735       -0.3416540026        1.4017405651
 H          1.0574048590       -0.0292778491        1.4708034857
 H          0.3389748851       -1.5792167045       -1.0552060374
 H          0.1496689791       -2.1893824698        0.5918338891
 H          1.7545070044       -1.8104301142       -0.0353146390
 H          0.9618063063        0.8259438949       -1.4547575677
 H          2.3935261059        0.6563863609       -0.4454373771
 H          1.2143858403        1.9197959782       -0.0907362406
  17
        -16.82802076
 C         -2.0663500931        0.4288693275        0.3268480496
 C         -0.8220905751        0.2966385989       -0.5446734819
 C          0.4201056168       -0.1398865623        0.2595286612
 C          0.9414761929       -1.4932979378       -0.2209869969
 C          1.5281731362        0.9088055455        0.1770189516
 H         -2.3028804206       -0.5209106096        0.8014476850
 H         -2.9213107105        0.7348265871       -0.2719841958
 H         -1.9096360583        1.1726490504        1.1050084913
 H         -1.0205300514       -0.4290889910       -1.3353965477
 H         -0.6274656998        1.2553287509       -1.0287404722
 H          0.1329300256       -0.2439233445        1.3115595668
 H          0.1651791924       -2.2512266010       -0.1446430752
 H          1.7905933439       -1.8112447328        0.3802636257
 H          1.2618776488       -1.4288962788       -1.2589261855
 H          1.1730117938        1.8695930117        0.5426325818
 H          1.8588052700        1.0305947652       -0.8524971830
 H          2.3837636081        0.6088445968        0.7782652022
  17
        -16.82406200
 C         -1.6939038306        0.9467149399       -0.3441578691
 C         -1.0422180460       -0.2279252531        0.3795928421
 C          0.5069759616       -0.2283666633        0.4439241006
 C          1.0588314010       -1.5087000009       -0.1851786383
 C          1.1689625388        0.9814416126       -0.2146110239
 H         -2.7742363956        0.8183475492       -0.3336771222
 H         -1.3713515572        0.9998712232       -1.3799543556
 H         -1.4630079319        1.8903332358        0.1423353484
 H         -1.4371757329       -0.2581649057        1.3973075922
 H         -1.3690147749       -1.1456964582       -0.1136932946
 H          0.8019787695       -0.2227852340        1.4994000533
 H          2.1425242462       -1.5423661340       -0.0961597537
 H          0.8004335475       -1.5515310501       -1.2412532489
 H          0.6486031638       -2.3872665860        0.3078251488
 H          2.2477141688        0.9154884888       -0.0887439813
 H          0.8342364205        1.9102854656        0.2380092034
 H          0.9554073700        1.0124461733       -1.2796128727
