! r2scan-3c def2/J RI DEFGRID2 scfconv6 printgap
%output
    printlevel normal
end
%cpcm
    smd true
    smdsolvent "water"
end
* xyz 0 1
C 0.741204435 0.0006477183 -0.0061237858
C 1.4456484805 0.8267873299 -0.8775939374
C 2.8396041857 0.8326026263 -0.8775828911
C 3.5327829455 0.0017526567 0.0027015519
C 2.8348480031 -0.8304507218 0.8779403107
C 1.4410375541 -0.8256826305 0.8690555876
Cl 0.5695178969 -1.8423632239 1.9380968961
Cl 3.6879213436 -1.8514172819 1.9568626679
Cl 5.2446957295 0.0033622893 0.0090758977
Cl 3.6988162279 1.8544774727 -1.9508050997
Cl 0.5800979956 1.8428853037 -1.9519735796
C -0.7411884341 0.0014602294 -0.0062283941
C -1.4415816367 0.8270787269 0.8692270158
C -2.8354264154 0.8302188686 0.8787171151
C -3.532736806 -0.0027739741 0.0038371553
C -2.8390247356 -0.8327911523 -0.876863448
C -1.4450823974 -0.8253103732 -0.8775163876
Cl -0.5787792301 -1.8405023768 -1.9522659555
Cl -3.6975070719 -1.8558224969 -1.949371579
Cl -5.2447379377 -0.0068079764 0.0114313403
Cl -3.6892542774 1.8501963017 1.9580777243
Cl -0.5707995338 1.8447929199 1.9377931334
*
