! pbe def2-sv(p) def2/J RI DEFGRID1 loosescf d4 GCP(DFT/SV(P)) printgap
%output
    printlevel normal
end
* xyz 0 1
C -2.2211783678 -0.6161996389 -0.7117960775
C -1.3853568595 -0.4864920164 0.5816543359
H -2.0615605124 -0.7540093161 1.4066072998
C -0.8663849096 0.9379103899 0.836848109
H -1.6779987486 1.6451103518 0.6116316953
C 0.3229124047 1.322070256 -0.061430611
H 0.9756079451 1.9702571947 0.5395874215
C 1.1484383758 0.0929867568 -0.4680983548
H 0.7749268373 -0.2991123244 -1.4279967356
C 0.9738512317 -1.0088855573 0.5916020948
H 1.280790103 -0.6167496266 1.5752838685
O -0.3516858146 -1.4707088041 0.6173124842
O 1.7964400411 -2.0927104979 0.3226311272
O 2.4981234669 0.4713978851 -0.5862116948
O -0.1790000522 2.0220445497 -1.1762743902
O -0.4359697885 1.094521935 2.1696422484
O -1.5605944175 -0.2868949301 -1.9034306871
H -3.1255527766 -0.0066033572 -0.5877371244
H -2.5105215182 -1.6644529809 -0.8152021256
H 1.3403586508 -2.683431552 -0.2983331808
H 3.0483594633 -0.3256909584 -0.530458624
H 0.5639196102 2.3650930728 -1.6937045318
H -1.1862606875 1.0005334179 2.7749755057
H -1.3123671834 0.6569842613 -1.8848942997
*
