! wb97x-v def2-tzvp def2/J RIJCOSX DEFGRID2 scfconv7 GCP(DFT/TZ) printgap
%output
    printlevel normal
end
* xyz 0 1
C -3.415577057430776 0.576825574088903 -0.018700216004019374
C -1.9421404293705118 0.5590338866985917 0.3543459101555896
H -1.7994481299580287 1.0033396840567481 1.3514155468388542
C -1.0768292552832845 1.3775192532152154 -0.6302432544554979
C 0.4057040469631795 1.3416155557518425 -0.2722246489046861
C 0.9314586441814853 -0.10431720524711519 -0.22496051316212118
H 0.7669427501324998 -0.5436304187882572 -1.2208712345585688
C 0.0959891329834229 -0.9128437409161259 0.7881581073744477
C -1.3662534349776376 -0.8351236945575576 0.4428250622870032
O -2.0332933715702537 -1.8425938402782354 0.22105340266126425
C 2.4210978511790238 -0.14902899851978832 0.03875049936821344
C 2.95297530510164 -0.491196489350099 1.2162429079462294
C 3.282384573339077 0.22714838733866533 -1.1333695833788304
H -3.782359423049226 1.6072392157636604 -0.04489762901306379
H -3.5726947984559927 0.13413743745626003 -1.0077755179357388
H -4.018652035830323 0.01730980651458956 0.7021320066996133
H -1.2234270514324663 0.9756731028167214 -1.642032540949494
H -1.4423048275919095 2.4100620873255143 -0.6365988607546912
H 0.9715536472979783 1.9260380366609238 -1.004500778635741
H 0.564410299054921 1.80434337193292 0.7112657621301142
H 0.40975323286142507 -1.9596127099331202 0.8193984359960289
H 0.22287931194246444 -0.4739348330255789 1.786972648691182
H 4.030294226586859 -0.4855785946059239 1.359345945532077
H 2.347465447748956 -0.786907744792559 2.067328749619921
H 3.024408269858253 1.2208522572451337 -1.5176557571704334
H 4.3425716095681794 0.22397239951769685 -0.8679482347212238
H 3.1268325859116057 -0.4775436378535419 -1.96007925107365
*
