! pbe def2-sv(p) def2/J RI DEFGRID1 loosescf d4 GCP(DFT/SV(P)) printgap
%output
    printlevel normal
end
* xyz 0 1
C -2.4076479594 -1.2003722619 -0.1524033056
C -1.0797136037 -0.6299744879 0.3888393246
H -1.0951981419 -0.5834085468 1.489762883
C -0.8066264111 0.7942066155 -0.1190304962
H -0.9862473823 0.8257669755 -1.2051735945
C 0.646355933 1.2241136905 0.1686820358
H 0.7635742055 1.365763669 1.2501443377
C 1.6351682035 0.1501608493 -0.2853320771
H 1.5806813779 0.0304304964 -1.3797395371
C 1.2242991003 -1.1939736458 0.3409662833
H 1.2827782796 -1.1056026625 1.4466985721
O -0.0861263052 -1.5420202318 -0.0356508713
O 2.0849120158 -2.1651160409 -0.1306171657
O 2.9272496621 0.5209677959 0.1122071025
O 0.8941543971 2.4875267363 -0.3937427204
O -1.6920587609 1.6593650618 0.549297975
O -3.4122629139 -0.2528931341 -0.3813468589
H -2.7579545405 -1.982588521 0.5336998896
H -2.1956661367 -1.6612538714 -1.1207508846
H 1.7247020408 -3.0447579849 0.0615590569
H 3.5382292421 -0.2020022132 -0.0972952193
H 1.083264916 2.4012712891 -1.3392214002
H -1.4344742946 2.5734076251 0.3521666459
H -3.474930104 0.3457942802 0.3782778293
*
