! r2scan-3c def2/J RI DEFGRID2 scfconv6 printgap
%output
    printlevel normal
end
%cpcm
    smd true
    smdsolvent "water"
end
* xyz 0 1
C -1.5842522351 0.898614767 -0.2868070988
C -1.3310322951 -0.4899866981 0.2849733994
C 0.0799649539 -0.9913717697 0.4060718239
C 1.266005201 -0.4728188697 0.1214578274
C 1.6585895469 0.8529105717 -0.4456523372
H -2.6572404319 1.0804036898 -0.3175550407
H -1.2005640238 0.9787808265 -1.300420249
H -1.1326812191 1.6661244971 0.3362688607
H -1.7723280965 -0.540450054 1.2866429755
H -1.8724943996 -1.2210321567 -0.3258210828
H 0.0879927929 -1.9970685701 0.8166330436
H 2.1265148291 -1.1035780599 0.322620553
H 2.3676557907 1.3341466025 0.2279636697
H 0.8213268068 1.518339153 -0.6027918461
H 2.1680049148 0.6991581952 -1.3973496428
*
