! pbe def2-sv(p) def2/J RI DEFGRID1 loosescf d4 GCP(DFT/SV(P)) printgap
%output
    printlevel normal
end
* xyz 0 1
C -1.9081609152 -0.5683828317 -0.7904696539
C -1.2141551294 -0.0874339168 0.4974081787
H -1.9391457994 -0.0637246226 1.3203500919
C -0.6281809735 1.3274414807 0.3419171667
H -1.3745548833 1.9499399317 -0.1639757674
C 0.6732207492 1.3201777444 -0.4885143695
H 1.1764068674 2.2822664052 -0.3078364857
C 1.6387501523 0.2378012879 0.0252842545
H 2.4119677064 0.093423114 -0.7405220589
C 0.9453645686 -1.1229753256 0.2321490737
H 1.583287891 -1.7428478806 0.8901536787
O -0.2439849981 -1.023265672 0.9625588614
O 0.800047323 -1.7377200052 -1.0083593824
O 2.1738391258 0.7163052395 1.2356502878
O 0.450625238 1.1189001751 -1.8596469865
O -0.416442625 1.9364035806 1.592178055
O -2.301505669 -1.9162860838 -0.7076865237
H -1.2147534108 -0.5084360559 -1.6309748404
H -2.7697160489 0.0823840843 -0.9858318183
H 0.1947699799 -2.4923222524 -0.9259947764
H 2.907528097 0.1552890126 1.5246878423
H 0.1192917537 1.9356238122 -2.2592018668
H 0.3570267746 1.5260620698 2.0129275449
H -2.9181406909 -2.02870368 0.0297153382
*
