! wb97x-v def2-tzvp def2/J RIJCOSX DEFGRID2 scfconv7 GCP(DFT/TZ) printgap
%output
    printlevel normal
end
* xyz 0 1
C -2.4536759008675073 1.1621246046839495 0.06776192779802241
C -1.43481509102731 0.04915279365088233 -0.18694408068404714
C -2.08741413985105 -1.3166203427015086 0.04133684345434703
C -0.17797025740833225 0.23978372454637056 0.6928181059133574
C 1.191386527756211 0.019510209730967062 0.011529125823929455
C 1.4292020066369093 1.0987421390876073 -1.0524518415876416
C 2.28134026595294 0.13923370041696645 1.084107645574797
C 1.2840712424535625 -1.365626186469321 -0.6373642893625586
H -3.352760298524503 1.0249182698064585 -0.5437483964347514
H -2.762102312051775 1.1695837975125003 1.120632353494977
H -2.032138794367554 2.1462945228721892 -0.16480014423828737
H -1.1386511111318278 0.10834655460119434 -1.242179964935387
H -2.933177885497354 -1.468016989352587 -0.6391311741210477
H -1.3808488510895984 -2.1379441890750117 -0.11153437747813134
H -2.4672019906387206 -1.3892608035918523 1.067980693731473
H -0.1712231295536803 1.2609316478028794 1.097556971912995
H -0.2480407390851412 -0.43180212454842304 1.5603716702860357
H 2.4107708052876133 0.9669264066393187 -1.5220281971913907
H 1.3990626806586217 2.0990367762973707 -0.6049530475054873
H 0.675110876018701 1.0592254568875037 -1.845443487470447
H 3.2779208694962056 0.03094129167683185 0.6405560318023943
H 2.166038450079239 -0.6363298365164001 1.850097523624183
H 2.236951420570735 1.115604962777532 1.5806824564602604
H 1.1260504308910333 -2.1599273667877212 0.10105119827835682
H 2.2766934218553105 -1.5096896904483244 -1.0800268571681693
H 0.5450344063723668 -1.4892528538960046 -1.436193737927225
*
