! r2scan-3c def2/J RI DEFGRID2 scfconv6 printgap
%output
    printlevel normal
end
%cpcm
    smd true
    smdsolvent "water"
end
* xyz 0 1
C -2.0663500931 0.4288693275 0.3268480496
C -0.8220905751 0.2966385989 -0.5446734819
C 0.4201056168 -0.1398865623 0.2595286612
C 0.9414761929 -1.4932979378 -0.2209869969
C 1.5281731362 0.9088055455 0.1770189516
H -2.3028804206 -0.5209106096 0.801447685
H -2.9213107105 0.7348265871 -0.2719841958
H -1.9096360583 1.1726490504 1.1050084913
H -1.0205300514 -0.429088991 -1.3353965477
H -0.6274656998 1.2553287509 -1.0287404722
H 0.1329300256 -0.2439233445 1.3115595668
H 0.1651791924 -2.251226601 -0.1446430752
H 1.7905933439 -1.8112447328 0.3802636257
H 1.2618776488 -1.4288962788 -1.2589261855
H 1.1730117938 1.8695930117 0.5426325818
H 1.85880527 1.0305947652 -0.852497183
H 2.3837636081 0.6088445968 0.7782652022
*
