! wb97x-v def2-tzvp def2/J RIJCOSX DEFGRID2 scfconv7 GCP(DFT/TZ) printgap
%output
    printlevel normal
end
* xyz 0 1
C 1.2892965039822126 6.612902311424851e-05 7.671893505990235e-06
C -0.1598039104149747 2.7867111567419145e-05 -0.00015896616928933065
C -1.3667381641773508 0.00014707640744113874 -4.4385067253954206e-05
H 1.6778381252138315 -0.958001103834213 -0.35940971177327197
H 1.677721556463851 0.7905099119948678 -0.6499052608050837
H 1.6774966570534209 0.16779878179050256 1.0096023413644004
H -2.433560396031027 -9.817428379736935e-05 9.984566898776818e-05
*
