! pbe def2-sv(p) def2/J RI DEFGRID1 loosescf d4 GCP(DFT/SV(P)) printgap
%output
    printlevel normal
end
* xyz 0 1
C -2.4823568219 -0.4618414718 -0.2021921853
C -1.0450574576 -0.1833141849 0.2433034583
H -0.9605202575 -0.3970089669 1.3188574706
C -0.6290445488 1.2859722271 -0.009370158
H -1.2418306803 1.713793439 -0.8111520721
C 0.8441979529 1.3111930242 -0.470331004
H 1.2471468541 2.3154240043 -0.3048934938
C 1.6564622145 0.2981767234 0.3625681562
H 2.7006615793 0.3240795585 0.0274958937
C 1.1057667706 -1.1313614221 0.0973985072
H 1.0540530551 -1.6764994849 1.0547457869
O -0.190391837 -1.0706352676 -0.4712866235
O 1.916330637 -1.8812880404 -0.7277137239
O 1.5412218955 0.6625837928 1.7166264334
O 0.9736398022 1.0506140334 -1.8442261357
O -0.8560532998 2.0951156133 1.1102421524
O -2.9202484419 -1.7417025514 0.1735349347
H -2.5527812416 -0.3320551683 -1.2892857564
H -3.1448569134 0.2517498997 0.29031033
H 1.9582148797 -1.4829282639 -1.6117921999
H 2.2544785551 0.2664056678 2.2360879332
H 0.4192345487 0.2840227612 -2.0624576104
H -0.2215033079 1.8511732634 1.804445864
H -2.3310969164 -2.3975874994 -0.2273345926
*
