! pbe def2-sv(p) def2/J RI DEFGRID1 loosescf d4 GCP(DFT/SV(P)) printgap
%output
    printlevel normal
end
* xyz 0 1
C -1.7485705868 -1.004655442 -0.7191946717
C -1.0681494712 -0.4434557922 0.5461899638
H -1.7694463922 -0.5455244992 1.3835116877
C -0.6947253205 1.0451579434 0.4212907985
H -1.5355823688 1.5724921845 -0.0421941527
C 0.5668982772 1.2590484164 -0.4435092637
H 0.9289204654 2.2757634921 -0.2351475592
C 1.6934796621 0.3131726463 0.0053560301
H 2.4595433076 0.3114317091 -0.7814552277
C 1.2114725972 -1.1402685517 0.1727059138
H 1.9538951209 -1.6804374421 0.7851812675
O 0.0425217036 -1.2433865624 0.9438269483
O 1.1054477493 -1.7158641211 -1.0890743102
O 2.1864246642 0.8209232882 1.2211058517
O 0.3239048084 1.0757345092 -1.8153294345
O -0.5369227615 1.6470406083 1.6836968009
O -3.1017983639 -0.6288730769 -0.8160612402
H -1.757166305 -2.0939668065 -0.6367005331
H -1.1835657357 -0.7175132743 -1.6115122242
H 0.9190672704 -2.6634889439 -1.0092940904
H 2.998715793 0.3603480351 1.4757428253
H 0.0331690099 1.9083002596 -2.2125321482
H 0.2853592365 1.3215416938 2.0845091502
H -3.1718412477 0.3106819137 -1.0300856138
*
