! pbe def2-sv(p) def2/J RI DEFGRID1 loosescf d4 GCP(DFT/SV(P)) printgap
%output
    printlevel normal
end
* xyz 0 1
C -2.2295617249 -1.1783370328 0.108190174
C -0.8530290747 -0.5752543141 0.4355167557
H -0.8198742513 -0.3175447837 1.5046384884
C -0.5762042231 0.6890303377 -0.397624191
H -0.6023609865 0.4158010356 -1.4595793154
C 0.8182593292 1.2651132368 -0.0703765822
H 0.7185076541 2.0259070673 0.7127742306
C 1.7550556518 0.1721537529 0.4863924896
H 2.781564696 0.4366970857 0.197140085
C 1.3989595967 -1.1712831426 -0.1683839034
H 2.0605310472 -1.9706327585 0.200575441
O 0.1050250473 -1.597880454 0.171228383
O 1.5530297271 -1.0048751422 -1.5467409781
O 1.6108142236 0.1334204288 1.8811171909
O 1.3884836662 1.9262115052 -1.1667465425
O -1.5994075054 1.6415661022 -0.2372323979
O -3.2948851488 -0.4151372836 0.6045694282
H -2.2945813434 -2.1590355455 0.5842439794
H -2.3123828004 -1.3096101327 -0.978729128
H 1.3976246064 -1.8461361206 -2.002965589
H 2.2726042333 -0.4546484828 2.2727916232
H 1.5526513754 1.2800831269 -1.8715331163
H -1.4897333449 2.099023026 0.6092165148
H -3.2390575427 0.469843256 0.2034424691
*
