! wb97x-v def2-tzvp def2/J RIJCOSX DEFGRID2 scfconv7 GCP(DFT/TZ) printgap
%output
    printlevel normal
end
%cpcm
    smd true
    smdsolvent "water"
end
* xyz 0 1
C 0.6719969570627705 -4.617547464919529e-06 -0.00020167880922832972
C -0.6719948312641768 1.0566671085823234e-05 -0.00013626596542798687
Cl -1.5919669130981098 1.4576914551395206 0.0003197425936489145
Cl -1.5920012230634832 -1.4576480989867713 0.00032339366699073456
Cl 1.5919719502664018 -1.4576839099343675 0.0003659212161722488
Cl 1.5920032772541715 1.4576546586570818 0.0003695789747208984
*
