! pbe def2-sv(p) def2/J RI DEFGRID1 loosescf d4 GCP(DFT/SV(P)) printgap
%output
    printlevel normal
end
* xyz 0 1
C -2.4834160117 -0.4771297002 -0.2286589655
C -1.0419419398 -0.2076178748 0.2133298993
H -0.9490203864 -0.3993543847 1.2946095736
C -0.6238095057 1.2574094302 -0.0549408427
H -1.2109416475 1.6662048299 -0.8845181931
C 0.8662493801 1.3018549641 -0.4675072648
H 1.246551673 2.306743786 -0.2544248846
C 1.6639223536 0.2809499531 0.3660665124
H 2.704713041 0.2898381316 0.02443075
C 1.1079329172 -1.1415326987 0.100700324
H 1.035079313 -1.6738238119 1.0738521614
O -0.1813628441 -1.099354816 -0.4771891102
O 1.9550433027 -1.7946906223 -0.7700136967
O 1.5435945885 0.6411020505 1.7205988959
O 1.0480429647 1.1064529727 -1.842261071
O -0.8937960639 2.0777052658 1.0499370111
O -2.993580988 -1.6984434449 0.2394307162
H -2.5106581029 -0.5414900123 -1.3177821855
H -3.1020852511 0.3655324065 0.101922734
H 1.5603522497 -2.6382098553 -1.0424530753
H 2.3017384521 0.3184669719 2.2270899492
H 0.7714648235 0.206092769 -2.0736836703
H -0.2620287373 1.8634873882 1.7562431002
H -3.0817357485 -1.6674122102 1.2028728222
*
