! pbe def2-sv(p) def2/J RI DEFGRID1 loosescf d4 GCP(DFT/SV(P)) printgap
%output
    printlevel normal
end
* xyz 0 1
C -1.833188382 -0.9615629418 -0.8378291822
C -1.2806012637 -0.1746022699 0.3578009499
H -2.0980384014 -0.0590088129 1.0776354732
C -0.7781475438 1.231175936 -0.0636978306
H -0.9391303236 1.3857011882 -1.1358115297
C 0.7302420997 1.3508962541 0.1940166833
H 0.9149618458 1.4214521396 1.2788792001
C 1.4331134349 0.0894546198 -0.324293527
H 1.1773339434 -0.0520607412 -1.3834954929
C 0.9313368045 -1.1270407863 0.4757793443
H 1.6213193063 -1.3031840086 1.3177085272
O -0.3030499194 -0.8934532955 1.1002849479
O 0.9085938598 -2.2266256876 -0.3820869987
O 2.8160586895 0.283404407 -0.170025785
O 1.206513024 2.4992629586 -0.4541131888
O -1.5138484035 2.2518113874 0.5542619476
O -2.4528865951 -2.1324441774 -0.3569139634
H -1.0189030507 -1.2097083591 -1.5290642843
H -2.5599508292 -0.3166131341 -1.3466882742
H 0.5825778024 -3.0066112074 0.0925700248
H 3.3003302513 -0.4308899306 -0.6074263795
H 2.1764988458 2.4780378807 -0.4280926497
H -1.2964473869 2.2936563938 1.497151313
H -2.858652766 -2.6054361364 -1.0969568628
*
