! pbe def2-sv(p) def2/J RI DEFGRID1 loosescf d4 GCP(DFT/SV(P)) printgap
%output
    printlevel normal
end
* xyz 0 1
C -3.297822579 0.3959942125 -0.5638115545
C -1.875397082 0.5001244983 -0.1169340046
C -1.108729803 1.5734442192 -0.2692403642
C 0.3147723095 1.5175704829 0.1856982038
C 0.9490981763 0.2484433085 -0.4057298229
H 0.8783395495 0.3477203057 -1.4949266601
C 0.144720516 -1.0020503443 0.0130052136
C -1.2467622731 -0.674312623 0.6004629788
H -1.1183867042 -0.3907305779 1.654552447
O -2.0593075889 -1.8273545301 0.6573332867
C 2.4083534691 0.0598087753 -0.0627270149
C 3.0016220753 0.5968853918 0.9910340605
C 3.1538434056 -0.8249788841 -1.0181720272
H -3.6918695856 1.3797766045 -0.8026288339
H -3.9025416148 -0.0570892794 0.2197612705
H -3.3756345177 -0.2296041357 -1.4529782638
H -1.4733018656 2.469454801 -0.7472790099
H 0.8714138572 2.3961689468 -0.1384142442
H 0.3489715259 1.4685929742 1.2770791597
H -0.00161431 -1.6500089238 -0.853479598
H 0.6989557853 -1.5726849617 0.7605192302
H -2.2079936744 -2.1507184937 -0.2420209623
H 4.0430635082 0.4157868488 1.1984368784
H 2.4906774888 1.2348938719 1.6894623433
H 3.1646984574 -0.3774040725 -2.0110947666
H 4.1791720987 -0.9750205702 -0.6922527511
H 2.6642875061 -1.7940748961 -1.0960147892
*
