! pbe def2-sv(p) def2/J RI DEFGRID1 loosescf d4 GCP(DFT/SV(P)) printgap
%output
    printlevel normal
end
* xyz 0 1
C -2.5598549622 -0.6718782037 -0.3374931704
C -1.1713034527 -0.3138480506 0.2075471258
H -1.2093830051 -0.2404164651 1.3065761487
C -0.6928363874 1.0357620769 -0.3450323964
H -0.6890119202 0.977867654 -1.4464769233
C 0.7395851977 1.3251334944 0.143473924
H 0.7285875792 1.4554759325 1.2322124911
C 1.6553216496 0.1476655151 -0.198831579
H 1.73658913 0.0499419613 -1.2938048086
C 1.0283274274 -1.15757364 0.3291465253
H 1.0000641515 -1.1090447126 1.4394516781
O -0.2741455684 -1.3413529428 -0.1653441159
O 1.8127314976 -2.2090469055 -0.1038923985
O 2.9152166322 0.366437266 0.3759193356
O 1.1900640894 2.553276707 -0.3674619315
O -1.5764959202 2.0384046894 0.0828707373
O -3.1725817127 -1.7317478234 0.3466433731
H -2.4488337401 -1.0077333653 -1.370034688
H -3.1758149116 0.2336227355 -0.3082182838
H 1.3218528975 -3.0402387402 -0.0094908432
H 3.4716425466 -0.4111793287 0.2168562173
H 1.4991873273 2.4443231498 -1.2784714881
H -1.1341441796 2.8969102878 -0.0216428717
H -3.3786927347 -1.4586594277 1.2520920585
*
