! pbe def2-sv(p) def2/J RI DEFGRID1 loosescf d4 GCP(DFT/SV(P)) printgap
%output
    printlevel normal
end
* xyz 0 1
C -2.0807805952 -1.3543549401 -0.1396551158
C -1.0172147999 -0.5017786565 0.5716309338
H -1.4524963316 -0.1306762296 1.5083453745
C -0.6184034101 0.7057776974 -0.2820046957
H -0.4752587034 0.3965156385 -1.3302516066
C 0.7214143886 1.245970384 0.2308988622
H 0.6652035525 1.3764005401 1.3196839154
C 1.7996942279 0.1935309727 -0.0875502694
H 2.0689598175 0.286391297 -1.1468310777
C 1.2253828466 -1.2292561411 0.1028025658
H 1.9839232211 -1.8208789792 0.6345639491
O 0.1134950639 -1.276688274 0.9581686119
O 0.9478674419 -1.7537639242 -1.1582316215
O 2.9272698963 0.3185353936 0.7455893888
O 0.9562528745 2.4744147649 -0.4182065804
O -1.645587584 1.6597742114 -0.2014515607
O -3.3388875809 -0.7282589001 -0.13687035
H -2.2021317643 -2.2974541072 0.3984583398
H -1.7554335446 -1.565377416 -1.1681069886
H 0.790309718 -2.7082351737 -1.096161652
H 3.550279651 0.9591323141 0.3743898885
H 1.6197140599 2.9867405731 0.0627109177
H -1.3003642634 2.5002802576 -0.5441492004
H -3.2228656037 0.2035622021 -0.3837378076
*
