! wb97x-v def2-tzvp def2/J RIJCOSX DEFGRID2 scfconv7 GCP(DFT/TZ) printgap
%output
    printlevel normal
end
* xyz 0 1
N 0.7290052597848224 -0.011310873934053042 -0.03201340452202478
N -0.7151535111852425 0.010815042455249207 0.1446043949043759
H 0.9629563795767608 -0.2642447745970074 -0.9907526965561614
H 1.0486825516191154 0.9447335911441688 0.08821935241740952
H -0.9979207904777968 -0.9467356783915329 0.3285111003489187
H -1.1728722873029107 0.273136835822535 -0.7269152620726655
*
