! pbe def2-sv(p) def2/J RI DEFGRID1 loosescf d4 GCP(DFT/SV(P)) printgap
%output
    printlevel normal
end
* xyz 0 1
C -2.5514748939 -0.6857261525 -0.3642067199
C -1.1728768016 -0.321159688 0.1816523963
H -1.2365780128 -0.2731219778 1.278615712
C -0.6943536243 1.0362544169 -0.3532001098
H -0.6698381681 0.9838490171 -1.4555598231
C 0.7286215553 1.3259415033 0.1623647262
H 0.6997862981 1.4292676548 1.2534416138
C 1.6510941708 0.1596024815 -0.1972663747
H 1.7339196553 0.0883466615 -1.2955872572
C 1.0237098936 -1.1556333673 0.3235737384
H 0.9958007443 -1.1133694422 1.4274586656
O -0.2626572934 -1.3351328362 -0.2020604095
O 1.8018422133 -2.2454737736 -0.032262174
O 2.9161410087 0.3657598635 0.3731890362
O 1.1748836746 2.5702639464 -0.313574402
O -1.588227816 2.0363989467 0.0560937014
O -3.1027534205 -1.7010375808 0.4403597397
H -2.4318400225 -1.0260659392 -1.3993801612
H -3.1685114174 0.2196801851 -0.3343989158
H 1.4328821523 -2.642581696 -0.836904731
H 3.4191155318 -0.4624304146 0.3243869135
H 1.5122934574 2.4827812858 -1.2169699037
H -1.1287239026 2.8912713933 0.004551767
H -3.9686702921 -1.9505258109 0.0874045628
*
