! wb97x-v def2-tzvp def2/J RIJCOSX DEFGRID2 scfconv7 GCP(DFT/TZ) printgap
%output
    printlevel normal
end
%cpcm
    smd true
    smdsolvent "water"
end
* xyz 0 1
C -0.9927965519492936 -1.5957684284605855 1.7235817625217494e-05
S -0.48429801576367304 0.12174918048534139 4.517510380469422e-05
O -0.828479302044543 0.7673509967202867 1.268046477122124
O -0.8293059017149591 0.7677010207846362 -1.2675319673800816
Cl 1.6425684965592864 -0.09809800378251 -0.0005812340341666678
H -0.6053985124867719 -2.065189346142848 0.9062826728056259
H -2.08793374807555 -1.5723471489847374 0.00101706109894859
H -0.606999162989287 -2.064619700308794 -0.90721937726783
*
