! r2scan-3c def2/J RI DEFGRID2 scfconv6 printgap
%output
    printlevel normal
end
%cpcm
    smd true
    smdsolvent "water"
end
* xyz 0 1
C -3.9757846769 -0.4947494405 -0.0014952485
C -2.5313265379 -0.0925697715 0.000504398
C -2.1687131625 1.267578099 0.0004901843
C -0.8564741835 1.6496735194 0.0003819885
C 0.175981674 0.6901029847 0.0002109182
C 1.5398156302 1.0488022986 -0.0005255278
C 2.5288673402 0.1012267303 -0.0009442569
C 2.1659752271 -1.2623866948 -0.0002277835
C 0.8562674999 -1.6449214726 0.00045723
C -0.1777568199 -0.6837626749 0.000523367
C -1.5391904592 -1.0412254102 0.0006429788
C 3.9802315026 0.4719452165 0.0002094288
H -4.6226397719 0.3780453546 0.0221799087
H -4.2050697058 -1.0740087521 -0.8945580383
H -4.1968023271 -1.1169015387 0.8641548925
H -2.9482245538 2.0162305347 0.000630718
H -0.5917620258 2.6976084151 0.0004706391
H 1.7938421523 2.1000395358 -0.0010105028
H 2.94926191 -2.0069325789 -0.0003696168
H 0.5906078347 -2.6925855585 0.0006952932
H -1.7970867138 -2.0915090515 0.000828493
H 4.1060883453 1.5507788237 -0.0317821764
H 4.4649802786 0.0894905977 0.8973666184
H 4.4819129887 0.0339912109 -0.8613194232
*
