! r2scan-3c def2/J RI DEFGRID2 scfconv6 printgap
%output
    printlevel normal
end
%cpcm
    smd true
    smdsolvent "water"
end
* xyz 0 1
C -1.314337381 -0.9285059382 -0.1379497838
C -0.4188270113 0.2973831991 -0.3127344003
C -1.1131169751 1.5436908474 0.2304836248
C 0.9287842222 0.108737878 0.3985164109
O 1.7617808092 -0.8598181954 -0.2026004371
H -1.489208785 -1.1212601838 0.9187303553
H -0.866812906 -1.8117863307 -0.5872534576
H -2.2743244102 -0.7599769544 -0.6192740082
H -0.2128433354 0.4376681911 -1.379495807
H -0.495471359 2.4255225583 0.0798943803
H -1.3033551723 1.4341439571 1.2958458881
H -2.0625116175 1.6969944186 -0.2756786529
H 1.5016490594 1.0385884046 0.3538774962
H 0.7585915771 -0.1394282607 1.455438543
H 1.3280211899 -1.7222608635 -0.1509671975
*
