! pbe def2-sv(p) def2/J RI DEFGRID1 loosescf d4 GCP(DFT/SV(P)) printgap
%output
    printlevel normal
end
* xyz 0 1
C -2.0132348383 -0.573460732 -0.7370459271
C -1.1887459756 -0.0889110672 0.471146962
H -1.8538157905 -0.0395016458 1.3417424992
C -0.6069092779 1.3166032515 0.2538369867
H -1.332638077 1.8826182084 -0.3445783648
C 0.7293694958 1.2886711604 -0.5184809856
H 1.1839448505 2.284340173 -0.4330505578
C 1.6908075677 0.2723788404 0.1328419459
H 2.595770071 0.1679819756 -0.4763549247
C 1.0078504625 -1.1077004972 0.1905422821
H 1.6097370148 -1.7894535725 0.8047730973
O -0.222170756 -1.0553286869 0.8760117751
O 0.9113106835 -1.6911521222 -1.0695379669
O 2.1216688907 0.7013918776 1.3953610597
O 0.4683014599 0.9622404597 -1.8671322093
O -0.4341511832 1.9001142849 1.5262345512
O -2.4896278193 -1.8808887575 -0.5400621234
H -1.4239635084 -0.5128397994 -1.6593296737
H -2.8961315346 0.0601448983 -0.8426475764
H 0.6272580124 -1.0156791338 -1.7142354907
H 1.3423040315 0.8538359978 1.9582710374
H 1.1321170542 1.3668461186 -2.4434276927
H -0.344239136 2.8607500402 1.4486042009
H -1.742185366 -2.4339811738 -0.2646552117
*
