! wb97x-v def2-tzvp def2/J RIJCOSX DEFGRID2 scfconv7 GCP(DFT/TZ) printgap
%output
    printlevel normal
end
* xyz 0 1
C -2.557689902821557 -0.9126131504173812 0.37302821729715313
C -1.1396826947382077 -0.43063396717466323 0.6131888151046357
H -0.9814384439238516 -0.35840893051020306 1.7021497730367028
C -0.829781488993196 0.9218984893978216 -0.027499000903228866
H -1.013100552202105 0.8585189532217775 -1.1114359263899964
C 0.6355506821341251 1.2649737104479462 0.2126390714801902
H 0.8000087241138202 1.397363929237824 1.289783344736286
C 1.5362802867667387 0.14228266289223207 -0.2937046217948983
H 1.4165759819276782 0.04306342409384553 -1.386739959086416
C 1.1216656914902416 -1.177356556984898 0.35012336712596576
H 1.2693455980775032 -1.1410223602419096 1.439629487136575
O -0.2581383406092282 -1.4243256212758204 0.057572843079169225
O 1.8626378057745177 -2.271329768926448 -0.11974200318804332
O 2.9031252843079245 0.38352301300363956 0.04254215247025968
O 0.9913558993266971 2.520425445387118 -0.38336701745234847
O -1.692194597161065 1.8941664292232754 0.5693635164410236
O -2.900303184885185 -0.985507167461966 -1.0155313107672632
H -3.257077669442194 -0.21104742415099254 0.8343087691417876
H -2.6822716411518366 -1.8914511972250583 0.8556313502943226
H 1.8806147414812673 -2.2309110016430376 -1.0880948647285118
H 3.1107933910690266 1.2800728222546676 -0.2568679622235252
H 0.8612987901751493 2.4384388768913294 -1.3400976645843035
H -1.4149138456466714 2.7591326617017224 0.23651755329831492
H -2.321160490576383 -1.6435557265342056 -1.4222047649827747
*
