! pbe def2-sv(p) def2/J RI DEFGRID1 loosescf d4 GCP(DFT/SV(P)) printgap
%output
    printlevel normal
end
* xyz 0 1
C -1.8688651184 -1.0833342778 -0.5299729187
C -1.0684145328 -0.5144978436 0.6764828884
H -1.6622986922 -0.6135325157 1.5912098611
C -0.7419953829 0.9781017023 0.5259018681
H -1.6434168817 1.4707296 0.143757201
C 0.4203689749 1.19395433 -0.4704663204
H 0.6982186533 2.2567022165 -0.4654508921
C 1.6323724253 0.3731927348 -0.0052197978
H 2.4153269977 0.4086072029 -0.7716424375
C 1.2328466212 -1.1082368219 0.1693166614
H 2.027260687 -1.6040053877 0.7453898851
O 0.0856454985 -1.305752577 0.9553118586
O 1.1175437291 -1.6680238899 -1.1110932128
O 2.2059942861 0.8861412442 1.1643221504
O 0.0262362031 0.8766483301 -1.785675343
O -0.4100236468 1.4801789782 1.8059154458
O -2.6341462944 -0.1283509074 -1.2214843785
H -2.5758350022 -1.8277751959 -0.1580379331
H -1.1738758644 -1.5797775447 -1.2116852821
H 1.1080948566 -2.6355483397 -1.0578517811
H 1.5051001804 0.9702914336 1.838021299
H 0.360979739 -0.0070472294 -2.0105064803
H -0.5430792597 2.4380967135 1.8282881762
H -2.0356608004 0.4040178422 -1.7745921085
*
