! pbe def2-sv(p) def2/J RI DEFGRID1 loosescf d4 GCP(DFT/SV(P)) printgap
%output
    printlevel normal
end
* xyz 0 1
C -2.53480724 -0.955903172 0.3234343505
C -1.1035421649 -0.4787152349 0.6140425482
H -0.9589841904 -0.4212171085 1.7030600698
C -0.8313388675 0.9171478174 0.0140414357
H -1.0635871006 0.8844692368 -1.0590648697
C 0.6530970713 1.2953208098 0.1878540707
H 0.8508529609 1.4621868467 1.251962449
C 1.5535439806 0.1573725064 -0.3157007084
H 1.4338992353 0.0645067105 -1.4092575834
C 1.1264656398 -1.1745660536 0.3359633246
H 1.2956442811 -1.1026941927 1.423719217
O -0.2237449216 -1.4438460616 0.0624231639
O 1.8944402902 -2.2320253323 -0.1158022889
O 2.8886462105 0.4534766857 0.000751582
O 0.9517970276 2.5197538993 -0.4236990815
O -1.6007498946 1.8970485616 0.6669242806
O -2.8491775148 -0.9247859265 -1.0443308194
H -3.2396534269 -0.2900168156 0.8226890275
H -2.6481664864 -1.966281332 0.7308282263
H 1.5580466252 -2.5335254003 -0.9749008301
H 3.4251570441 -0.3458091031 -0.1232803269
H 0.8357726106 2.449461499 -1.3832479073
H -2.4705122329 1.9652950061 0.249998348
H -2.3196510474 -1.5941308235 -1.4995540061
*
