! pbe def2-sv(p) def2/J RI DEFGRID1 loosescf d4 GCP(DFT/SV(P)) printgap
%output
    printlevel normal
end
* xyz 0 1
C -2.4867565341 -0.213296493 -0.5399082461
C -1.2133949518 -0.1932441118 0.3125063232
H -1.4466782818 -0.5523161693 1.3271873125
C -0.6103203679 1.2195189153 0.4531534666
H -1.3514128046 1.9639360737 0.1254856853
C 0.628593564 1.3476484494 -0.4604836621
H 1.0741085514 2.3399504468 -0.3324395698
C 1.6924306269 0.3035596983 -0.0725630459
H 2.3041941322 0.0950056274 -0.9627490703
C 0.9889720666 -1.0113382544 0.3294977988
H 0.8513086825 -1.0162288185 1.4284156096
O -0.2843172794 -1.0903862072 -0.2844616857
O 1.7604816703 -2.0705681751 -0.102799808
O 2.4758561605 0.8306411448 0.9630879417
O 0.2710072799 1.2535765852 -1.8137919888
O -0.2968926172 1.4001774084 1.8112556075
O -3.0660006319 -1.4899500433 -0.5998933052
H -2.2577668286 0.1604847216 -1.5455790693
H -3.2317200787 0.4368843029 -0.0785920678
H 1.3116886192 -2.9118024146 0.0745400728
H 3.2116100744 0.2321256805 1.1549583798
H 0.0354536975 0.3324569585 -2.0069817669
H 0.1832688081 2.231137581 1.9366496648
H -2.4153025594 -2.1078549315 -0.963181111
*
