! pbe def2-sv(p) def2/J RI DEFGRID1 loosescf d4 GCP(DFT/SV(P)) printgap
%output
    printlevel normal
end
* xyz 0 1
C -2.4776495213 -0.8143287296 -0.2676469224
C -1.1555357395 -0.6082296099 0.488882644
H -1.2547561938 -1.0229397289 1.5050367366
C -0.7600089178 0.8738301138 0.6562211193
H -1.6362477989 1.4954669512 0.4232528102
C 0.3653078945 1.2620601264 -0.3258941578
H 0.709817601 2.2720014929 -0.0617391108
C 1.5869090236 0.3283555813 -0.1860350775
H 2.036860972 0.2015729987 -1.1840185029
C 1.1335684961 -1.0658424194 0.3053532098
H 1.1226879934 -1.0635997758 1.408667394
O -0.1513231655 -1.3424023926 -0.193192836
O 1.9968838888 -2.0721325283 -0.0979644171
O 2.5040470703 0.9340575846 0.6874013236
O -0.1672949854 1.2342756627 -1.6251985322
O -0.3625547615 1.0456588104 1.994307436
O -2.7437901406 0.1410890416 -1.2592072392
H -3.3101296418 -0.7512637791 0.4357182401
H -2.4456504719 -1.8238808807 -0.6985720356
H 1.7277118169 -2.3796584157 -0.9776027261
H 3.2443781551 0.3316939325 0.8480397701
H 0.415712259 1.7094510326 -2.2343460869
H -0.1687980007 1.9780791371 2.1681195839
H -1.9412932555 0.2846976593 -1.7879063548
*
