! pbe def2-sv(p) def2/J RI DEFGRID1 loosescf d4 GCP(DFT/SV(P)) printgap
%output
    printlevel normal
end
* xyz 0 1
C -2.2258235713 -0.8825140407 -0.1742022137
C -1.1450489356 -0.3359826821 0.7866891699
H -1.6149913488 -0.3463465107 1.7792807657
C -0.721489491 1.1166599442 0.4924990142
H -1.5660604952 1.6367134981 0.0186686297
C 0.4897345993 1.2360381851 -0.4620393727
H 0.8331243373 2.2773934942 -0.402668019
C 1.620443538 0.3174054032 0.0178531813
H 2.4154251334 0.2976520551 -0.7362359017
C 1.0787231632 -1.1231705291 0.1409725497
H 1.8301358952 -1.7386291802 0.6613908447
O -0.0473171633 -1.2338916426 0.965794469
O 0.8638066252 -1.587788374 -1.1595422225
O 2.2124620775 0.7543476756 1.2086873279
O 0.1319625899 0.9904521584 -1.7975727647
O -0.3423130811 1.7815657672 1.6800058118
O -1.8810343254 -0.9781148099 -1.5282274724
H -3.1202926685 -0.2570221548 -0.0460565404
H -2.4657228478 -1.901007483 0.1405972755
H 0.457257786 -2.4673957784 -1.144456648
H 1.5144067455 1.0533033147 1.8179979544
H 0.3559999228 0.0646922353 -2.0109497505
H -1.109240027 1.9080830285 2.2566293956
H -1.6465605274 -0.100950378 -1.874617032
*
