! r2scan-3c def2/J RI DEFGRID2 scfconv6 printgap
%output
    printlevel normal
end
* xyz 0 1
C -2.5242148342 -0.9652536483 0.3802544221
C -1.0957536224 -0.4604540037 0.6317988766
H -0.9294303944 -0.3631323708 1.7159375432
C -0.8268681473 0.8995159857 -0.0358261413
H -0.9942099308 0.8019445474 -1.1167180605
C 0.6374674186 1.2824471499 0.2035307714
H 0.7812907873 1.4320903149 1.2861322071
C 1.5824319025 0.169774308 -0.2643367387
H 1.5439604062 0.1033005744 -1.3612772079
C 1.1485150037 -1.186889249 0.3079876702
H 1.3557902493 -1.1755343382 1.3982495844
O -0.2221787439 -1.4386952705 0.0956069819
O 1.8564615703 -2.1773512067 -0.3349280225
O 2.892699186 0.4083961636 0.1746781925
O 0.9893297275 2.4518932035 -0.4940455081
O -1.6152211155 1.9315948587 0.5063658569
O -2.8527268826 -0.9898522309 -0.9839413831
H -3.237810045 -0.2961362563 0.8627096568
H -2.6161505244 -1.9633195381 0.8235917432
H 1.5548155769 -3.0486476499 -0.0310250331
H 3.1772586712 1.2664701881 -0.1767456171
H 0.3538435283 3.1465051862 -0.2635909054
H -2.5171131377 1.8665242095 0.1632752565
H -2.2625625363 -1.6137733204 -1.430079262
*
