! wb97x-v def2-tzvp def2/J RIJCOSX DEFGRID2 scfconv7 GCP(DFT/TZ) printgap
%output
    printlevel normal
end
* xyz 0 1
C -3.368885322732028 -0.002408411772424092 -0.5316264016802522
C -2.728595859962714 -1.207761934650278 -0.24875806501678202
C -1.4543876343984876 -1.2059446193887513 0.3082847031249349
C -0.807634908165691 0.0020306851197711496 0.5895188090620072
C -1.4566807196653326 1.2077471096287984 0.30397648150110695
C -2.7309304722574406 1.2051454331839915 -0.25302322598538923
C 0.5469880896568244 0.004486065619035749 1.1920573997702724
Br 1.9805360912400494 0.00022915103601855966 -0.23771242608731388
H -4.364047431249577 -0.004139609151037572 -0.964826679098351
H -3.2249487705805877 -2.1498698804076435 -0.45891282021623997
H -0.9546672318193286 -2.1448885364417127 0.5297374873584982
H -0.9587651457969499 2.1484258076439726 0.5220902682446973
H -3.229089482064996 2.1455500338800824 -0.46650956887057843
H 0.7568001168558939 -0.89080621982157 1.7741982541301915
H 0.7559901901895367 0.9037189794956304 1.7683641890429826
*
