! r2scan-3c def2/J RI DEFGRID2 scfconv6 printgap
%output
    printlevel normal
end
* xyz 0 1
C -2.7523203895 -0.8430577239 0.1432340891
C -1.9623634222 0.4315394356 -0.119836246
C -0.4787541649 0.2306312736 -0.0577072573
C 0.4031209206 1.2862165951 -0.3174179834
N 1.7151009551 1.1418211819 -0.2658352428
C 2.1769502805 -0.0650653381 0.0467696768
C 1.3141786982 -1.1180032596 0.303776085
N -0.00276679 -0.9705604589 0.2521410804
H -2.5189447539 -1.2344926696 1.1288304828
H -2.4984730039 -1.602560465 -0.5903759874
H -3.8178826032 -0.6389096109 0.0865419205
H -2.2315539732 1.1961852987 0.6138518781
H -2.2114739187 0.8315611657 -1.1061107914
H 0.0414025024 2.2727491252 -0.5730424192
H 3.250652379 -0.1725808353 0.0869497861
H 1.6723406671 -2.1055050199 0.5577345878
*
