! wb97x-v def2-tzvp def2/J RIJCOSX DEFGRID2 scfconv7 GCP(DFT/TZ) printgap
%output
    printlevel normal
end
* xyz 0 1
C -1.9438567658720427 -1.243947389569796 -0.07706503711441648
C -1.4984392823007737 0.20504950751856837 0.0718887057436523
C -0.019625451753102537 0.4448318728604514 0.19297400102301654
O 0.4700758087290009 1.4995468151133622 0.5679452930544994
O 0.7232439547911518 -0.6121693556523603 -0.17790262262046105
C 2.1617347746428104 -0.4294854866135586 -0.11545290351294286
H -3.035726333368741 -1.2879463419892243 -0.11695093065529089
H -1.5550013498605924 -1.6933989989196736 -0.9940396629707072
H -1.6120191258875527 -1.8501216536479603 0.7706520197470856
H -1.9583892110201653 0.676348321860327 0.946256477241112
H -1.8217297395510161 0.7989802657467172 -0.7936157760223326
H 2.5867480759459966 -1.3708644008836621 -0.46185480287615216
H 2.4707988834226113 -0.22665166966339764 0.9128120695920044
H 2.466571594189261 0.39126517169454794 -0.7691960133782563
*
