! r2scan-3c def2/J RI DEFGRID2 scfconv6 printgap
%output
    printlevel normal
end
* xyz 0 1
C 2.8861345065 -0.0615107617 -0.0006882514
C 1.3916679706 -0.0042038403 0.0004055217
C 0.7126363006 1.2128380853 0.0003732739
C -0.6677883232 1.2220996612 0.0002059355
C -1.3550777273 0.0083573978 7.37861e-05
N -0.7135292724 -1.1536888808 0.0002585444
C 0.6107022099 -1.1517336832 0.0004114839
C -2.8510089157 -0.0340665068 -0.0005615968
H 3.2801811228 0.4253892546 -0.8912607414
H 3.2835913985 0.4595452883 0.8686235003
H 3.2318045178 -1.0913953343 0.0180448558
H 1.2680447121 2.1401054289 0.0004954036
H -1.2163532446 2.1516209788 0.0002518497
H 1.0697571122 -2.132906109 0.0007222532
H -3.1871903676 -1.0658331954 0.0071555082
H -3.2411637487 0.4791843601 0.8759529136
H -3.2395413546 0.4647290894 -0.886202043
*
