! wb97x-v def2-tzvp def2/J RIJCOSX DEFGRID2 scfconv7 GCP(DFT/TZ) printgap
%output
    printlevel normal
end
* xyz 0 1
C 3.2996742122156175 1.0783724286520622 -0.004802645061395452
N 2.2745512735708706 0.04000013300431395 0.003161295680765735
C 2.4819520839914158 -1.292476002364167 -0.00018287584920077997
N 1.3522811974903017 -2.009995130817148 0.001839584805966413
C 0.37776429341200907 -1.0665630824625592 0.006174974631709091
C 0.9012229020680046 0.21332871167305376 0.005661960589081551
C 0.10119318469059156 1.3820901150274834 0.0037942547066405633
O 0.5037426999473812 2.552250966799571 0.0018333340890869295
N -1.277520271285552 1.0659011177537754 0.002584093329459013
C -1.8407464590236613 -0.21589077266486917 -0.006696108228653679
O -3.065778838648913 -0.3600347411665942 -0.02533106001355235
N -0.9731098761150285 -1.2916201842006814 0.011527929913940407
C -1.4864745369486334 -2.6641115810365825 0.0006346365161509558
C -2.2473133068888473 2.1685963784235005 -0.0013314699207274893
H 3.222227070986593 1.6795926364244318 -0.9133789315456013
H 3.1889193328061456 1.7236323410318797 0.8691331860569141
H 4.274222856710858 0.5897079041897593 0.025746551554729925
H 3.479415402743488 -1.7113165598829996 -0.0033800843336663413
H -1.244095550602587 -3.1507011143201087 -0.948128247668069
H -2.5661778387609533 -2.6325949656993832 0.1278634836208133
H -1.0385793239580943 -3.227092710442253 0.8220852578698653
H -2.890614980001298 2.105090920985172 0.8792635669282756
H -2.8659563885031885 2.123035757239036 -0.9006564723063158
H -1.6968657472140027 3.1063826226575086 0.015761532508481314
*
