! wb97x-v def2-tzvp def2/J RIJCOSX DEFGRID2 scfconv7 GCP(DFT/TZ) printgap
%output
    printlevel normal
end
* xyz 0 1
C -2.8498639152768295 0.40712732127024265 -0.10878183020937313
N -1.8325237898904154 -0.5921081072934451 0.1953864922796559
C -0.4899162605762158 -0.2695210308612502 0.0779369950834427
C 0.4678300037240975 -1.300815530847461 0.010745117681987161
C 1.8217231688971194 -1.0071721814264902 -0.04978063858170931
C 2.267947266818317 0.31689938496306946 -0.04824478298075716
C 1.3255281685983338 1.3398219663027475 0.00903730077665221
C -0.038449988253269514 1.0618347742920378 0.06636589804719233
H -2.7099323172738043 0.8737201256546773 -1.0954303611080105
H -2.857510565010949 1.199568380121698 0.646314518310805
H -3.82810464641661 -0.07706578380397165 -0.09016775884838796
H -2.0501953717280816 -1.5120727356659158 -0.1609191663740039
H 0.1315897770201248 -2.3346806038927346 0.009966713428554074
H 2.5385378058257864 -1.8216851881685985 -0.1012328438341417
H 3.328021554097305 0.5425636813083425 -0.09554228458300434
H 1.6497682850742457 2.376560133502945 0.0034108539472821305
H -0.7473636793003198 1.8811096878907174 0.1055872108409303
*
