! wb97x-v def2-tzvp def2/J RIJCOSX DEFGRID2 scfconv7 GCP(DFT/TZ) printgap
%output
    printlevel normal
end
%cpcm
    smd true
    smdsolvent "water"
end
* xyz 0 1
C -2.1982291206921527 0.31471119971137423 0.30634066634141954
C -1.003886599035155 0.1606168288520936 -0.6435340309047757
C 0.0040689098022694365 -0.8107322533098779 -0.10888799239570127
C 1.2727834453524127 -0.5678717832349184 0.23986002513975685
C 2.0073783379910335 0.7328634513178435 0.1658712699244868
H -2.6816238309033524 -0.6515306621565974 0.4870110950010085
H -2.9476621163067622 0.9939717988328345 -0.11254015364498703
H -1.876544195628885 0.7153671215485973 1.2733188521966372
H -1.3720874045398774 -0.20664486791221778 -1.6112163980175962
H -0.5511201183682433 1.138891851152909 -0.829577043816276
H -0.3683643603823027 -1.8279022590819265 0.023044661875391868
H 1.855819998606128 -1.4047659800525427 0.6250991099225408
H 2.8829008286365023 0.6447911164885634 -0.4888489125991002
H 2.3910214716448146 1.0122980617121708 1.1544215472383932
H 1.38901735054682 1.5534742528255598 -0.20285552676983656
*
