! pbe def2-sv(p) def2/J RI DEFGRID1 loosescf d4 GCP(DFT/SV(P)) printgap
%output
    printlevel normal
end
* xyz 0 1
C -2.2300229361 -0.8074222726 -0.2399290635
C -1.1796749117 -0.2889460032 0.7681424732
H -1.6899928796 -0.2885441607 1.7408404878
C -0.7104295088 1.1562125283 0.5051807594
H -1.5420220966 1.7120766485 0.0497643732
C 0.4840180406 1.2488393569 -0.4583995377
H 0.8841555029 2.2720502014 -0.372094825
C 1.596536335 0.2851669157 -0.0139351778
H 2.3585735615 0.2106743802 -0.7982007808
C 1.0396473624 -1.1393359223 0.1812807433
H 1.7786505539 -1.7207567083 0.7603892923
O -0.1049739654 -1.2016260297 0.989858777
O 0.8691680088 -1.6822600266 -1.0888952385
O 2.2561929738 0.7540319999 1.129849803
O 0.0163308779 1.0167600372 -1.7621457012
O -0.293990273 1.7783429529 1.7016390884
O -1.7772217726 -1.094852175 -1.5321315838
H -3.0425496248 -0.0655141165 -0.2716572212
H -2.6331117285 -1.7475390988 0.1463707013
H 0.3965973436 -2.5260825599 -1.0345701698
H 1.5925771778 1.0411349148 1.7814298126
H 0.7620314851 0.9760906898 -2.3774339299
H -1.0457100775 1.8921971293 2.3005189251
H -1.2296642294 -0.3526528745 -1.8533133264
*
