! pbe def2-sv(p) def2/J RI DEFGRID1 loosescf d4 GCP(DFT/SV(P)) printgap
%output
    printlevel normal
end
* xyz 0 1
C -2.0242766502 -1.4085012423 -0.1830245042
C -1.0330577506 -0.5001266027 0.5596773578
H -1.5199294989 -0.1818654217 1.4908806551
C -0.651610106 0.7421926898 -0.255713967
H -0.5467541326 0.4813110054 -1.3157836181
C 0.7111888994 1.2497464226 0.2453861375
H 0.6874541998 1.3497502648 1.343596957
C 1.7720580023 0.2090747002 -0.1270725944
H 1.9794831012 0.3005943541 -1.2034954964
C 1.226898048 -1.2116702014 0.1248732559
H 1.9958362153 -1.7635369863 0.6817156027
O 0.1159755171 -1.2279300905 0.9873368822
O 0.9456074983 -1.800319533 -1.1048328705
O 2.9518309522 0.3568532592 0.6185326198
O 1.0438076228 2.4844107684 -0.3380234454
O -1.6093291709 1.7656573622 -0.2164500992
O -3.2835772182 -0.7794472538 -0.1605700473
H -2.058706054 -2.3702605084 0.3463479088
H -1.6748481764 -1.5702681623 -1.2092188532
H 0.8727746312 -2.7622945844 -1.008850116
H 3.2932209649 1.253833378 0.4819623075
H 0.2150273696 2.9538792916 -0.5332422745
H -1.9590837652 1.8649407237 0.6808886949
H -3.9071191185 -1.2879910189 -0.6968899178
*
