! pbe def2-sv(p) def2/J RI DEFGRID1 loosescf d4 GCP(DFT/SV(P)) printgap
%output
    printlevel normal
end
* xyz 0 1
C -1.8443046159 -0.6146901488 -1.0946454349
C -1.2409020198 -0.5597689697 0.3272612971
H -2.0236520201 -0.893505911 1.0228143823
C -0.796669823 0.8563736521 0.7160478465
H -1.610744409 1.5534352011 0.473875021
C 0.433247316 1.3157211101 -0.0874280673
H 1.0024607373 1.994609954 0.5629848848
C 1.3552409773 0.1342179564 -0.4308211256
H 1.1095888339 -0.2352389787 -1.4404685849
C 1.116173295 -1.0121608887 0.5676495128
H 1.3127536199 -0.6427711699 1.5871193112
O -0.189699418 -1.5170685377 0.448015902
O 2.0012255951 -2.0572354513 0.3462519267
O 2.6912346326 0.5668027808 -0.388384653
O -0.0234741446 1.9828256562 -1.2376486178
O -0.4658838884 0.9486993061 2.0819465071
O -3.1480662077 -0.090031463 -1.1349283632
H -1.9281442232 -1.667094311 -1.3761215102
H -1.1933757833 -0.1002936238 -1.8059934745
H 1.6138713033 -2.6674870935 -0.3011998067
H 3.2652205021 -0.2094549625 -0.2883166974
H 0.7242039295 2.4164638588 -1.6731967319
H -1.2526871632 0.7859599828 2.6230674303
H -3.1105143711 0.8742217625 -1.1910143956
*
