! pbe def2-sv(p) def2/J RI DEFGRID1 loosescf d4 GCP(DFT/SV(P)) printgap
%output
    printlevel normal
end
* xyz 0 1
C -2.9050082936 -1.0373787469 0.3736317422
O -1.7316559852 -0.7212687893 -0.3778210706
C -1.0336427226 0.3460691126 0.0041366119
O -1.3669781436 1.0362660337 0.9452025647
C 0.1502861936 0.6337454343 -0.8972294871
C 0.8272597807 -0.6301141817 -1.4541151362
C 1.9888135601 -1.0820726396 -0.5603025228
C 1.7029353951 -0.7279028913 0.8941226003
C 1.7132317723 0.7927952633 1.0787336707
C 1.1666119329 1.5106049367 -0.1630359806
H -2.6435411758 -1.2211889363 1.4166809217
H -3.3172723211 -1.9286596781 -0.0886656206
H -3.6118521847 -0.2079889875 0.3278753044
H -0.279023677 1.2016437463 -1.7312647853
H 0.0852138779 -1.4237604402 -1.5345677171
H 1.2009490494 -0.422259436 -2.4567697553
H 2.1351747177 -2.1572830281 -0.6668193651
H 2.9133366502 -0.5894235886 -0.8645143741
H 0.7251624301 -1.1297096212 1.1724786409
H 2.4426569676 -1.1849447864 1.5526506381
H 1.1071813606 1.0536423123 1.9479642555
H 2.73084959 1.1363475381 1.2692109666
H 0.6967853529 2.4489210718 0.1331759753
H 1.976419342 1.7392926953 -0.8555448329
*
