  22
        -55.06736512
 C          1.2203948325        0.8853959007       -1.3688100568
 C          2.5921163971        0.9958578830       -1.5002183410
 C          3.4272484994        0.4289490703       -0.5498096217
 C          2.8820693602       -0.2516981786        0.5335716661
 C          1.5087863586       -0.3670794827        0.6635661666
 C          0.6718022619        0.2025102275       -0.2885919636
 C         -0.7948967457        0.0738022990       -0.1478770574
 C         -1.5918503677        1.2021025334        0.0485081291
 C         -2.9729633425        1.0775521633        0.1798852951
 C         -3.5731079389       -0.1697038673        0.1135281703
 C         -2.7895056692       -1.2956708406       -0.0821849051
 C         -1.4075340801       -1.1781934899       -0.2108630314
 Cl        -0.4475967371       -2.5851396404       -0.4806210577
 Cl        -3.5344185392       -2.8450800710       -0.1676836526
 Cl        -3.9447085312        2.4760140163        0.4297109291
 Cl        -0.8552913513        2.7554325080        0.1649074299
 Cl         3.9161060985       -0.9617440706        1.7286892325
 Cl         5.1447377811        0.5692421124       -0.7135306097
 H          0.5735037767        1.3208703683       -2.1126713979
 H          3.0236026108        1.5195839074       -2.3369271354
 H          1.0970729988       -0.8913079913        1.5103904584
 H         -4.6415229528       -0.2635177121        0.2139103346
  22
        -55.06682509
 C          1.2255234733        0.4400247170       -1.5548384929
 C          2.5977946806        0.5348804326       -1.6961565868
 C          3.4236413106        0.3007629837       -0.6076896947
 C          2.8704314653       -0.0296529761        0.6245180228
 C          1.4962291654       -0.1259052655        0.7671761257
 C          0.6710869742        0.1095339310       -0.3242554465
 C         -0.8001715835        0.0068674538       -0.1699634098
 C         -1.5546041306        1.1297494236        0.1616879455
 C         -2.9373128926        1.0327818996        0.2998055626
 C         -3.5742768512       -0.1831821825        0.1074715113
 C         -2.8292262699       -1.3049096662       -0.2210219746
 C         -1.4462028155       -1.2124787429       -0.3592077260
 Cl        -0.5115298601       -2.6027165281       -0.7655960967
 Cl        -3.6199557213       -2.8146858698       -0.4581128247
 Cl        -3.8619671392        2.4244955389        0.7109083089
 Cl        -0.7537347022        2.6370067315        0.4026470747
 Cl         3.8941304435       -0.3231884715        1.9906391268
 Cl         5.1419889982        0.4204768057       -0.7850888346
 H          0.5827194854        0.6218396777       -2.4004863017
 H          3.0362927818        0.7898762104       -2.6465767130
 H          1.0754491295       -0.3823770630        1.7255707833
 H         -4.6438901317       -0.2562297661        0.2133327297
