! pbe def2-sv(p) def2/J RI DEFGRID1 loosescf d4 GCP(DFT/SV(P)) printgap
%output
    printlevel normal
end
* xyz 0 1
C -2.770248978 -0.7793756095 2.56841e-05
O -1.7987642373 0.246615438 -1.20392e-05
C -0.4782820971 -0.1106194653 -9.1972e-06
C -0.0002490391 -1.4108283953 -1.14415e-05
C 1.3654346462 -1.6594560737 -3.266e-06
C 2.2630603757 -0.6126192091 6.629e-06
C 1.7972400205 0.6939300156 6.5116e-06
C 0.4392241073 0.9578425399 -2.005e-06
O -0.0648737576 2.2238294252 -3.5785e-06
H -3.7279129719 -0.2637987549 5.33971e-05
H -2.687683078 -1.4023961409 0.8948893357
H -2.6877417614 -1.4024064355 -0.8948364053
H -0.6862562224 -2.241867887 -1.88941e-05
H 1.7158346471 -2.6795511246 -5.258e-06
H 3.3248625659 -0.8010927075 1.19436e-05
H 2.4968657488 1.5167519392 1.01128e-05
H 0.6587810878 2.8691733068 -1.02229e-05
*
