! pbe def2-sv(p) def2/J RI DEFGRID1 loosescf d4 GCP(DFT/SV(P)) printgap
%output
    printlevel normal
end
* xyz 0 1
C -2.0789205859 -1.2411230212 -0.1771675897
C -1.2413722673 -0.3622283561 0.7773731535
H -1.8216750945 -0.2027431504 1.6920812233
C -0.9311400597 1.0188657197 0.1471902381
H -1.2189315692 0.9920841172 -0.9153578762
C 0.5726531405 1.2955997893 0.2251153404
H 0.8606631059 1.4110665228 1.2758807863
C 1.3316508307 0.1074704621 -0.3852865275
H 1.0060799719 -0.0321715019 -1.4292607516
C 1.013373426 -1.173560808 0.4000699225
H 1.8629629987 -1.3815966135 1.0635345113
O -0.0790406025 -1.0288580316 1.2689346372
O 0.8237196565 -2.2186132225 -0.509543388
O 2.7187944139 0.3179562669 -0.3453838565
O 0.9548449503 2.4889602407 -0.4061171257
O -1.5978936872 2.0637922374 0.8138480316
O -1.5959195416 -1.2792875869 -1.4968005603
H -3.084888098 -0.8221046664 -0.2431989254
H -2.1439785208 -2.2488702956 0.2485062954
H 0.8827813732 -3.0747426042 -0.0582328649
H 2.8837750327 1.2589749153 -0.5264319583
H 0.5093466139 2.5681966019 -1.2628816811
H -2.5410220065 2.0476243601 0.6003083363
H -0.7387300677 -1.7453761687 -1.4944594856
*
