! pbe def2-sv(p) def2/J RI DEFGRID1 loosescf d4 GCP(DFT/SV(P)) printgap
%output
    printlevel normal
end
* xyz 0 1
C -3.5124211288 -0.5272014054 0.0546944499
C -2.1429491153 -0.1432805203 -0.5015933014
H -2.2699244321 0.1718955334 -1.5418956238
C -1.1641063177 -1.3279555908 -0.4553389713
C -0.2421414922 -1.2264367964 0.7551507509
C 0.6984383521 -0.0245483381 0.6023010178
H 1.0785045539 0.2438319799 1.5960285864
C -0.0950457365 1.1749477576 0.1224304085
O 0.414111838 2.1648128708 -0.3699671572
C -1.5827957782 1.05498945 0.2913990016
C 1.936007569 -0.2443219603 -0.3077583027
C 3.03434937 0.7523800092 0.0674653524
C 2.505566462 -1.6601124999 -0.233928868
H -4.1724909588 0.3365785592 0.0728083862
H -3.9697295443 -1.2946086713 -0.5647954907
H -3.4179145097 -0.9116550905 1.0674515083
H -1.7240512931 -2.2628575078 -0.4219087307
H -0.5530001997 -1.3398792589 -1.3596557251
H -0.8431107243 -1.1076958927 1.657698941
H 0.3320514198 -2.1416448597 0.87469795
H -1.7910555097 0.9106164308 1.3526034348
H -2.0575240148 1.9819175343 -0.0329088702
H 1.6361762088 -0.0432109791 -1.342810326
H 3.8701210585 0.669969653 -0.6234882903
H 3.3985752893 0.5522170627 1.0733107184
H 2.6583280555 1.7707408606 0.0261089996
H 2.7159634666 -1.9358310563 0.7967370345
H 3.4387728615 -1.6962433638 -0.7911487868
H 1.8308886098 -2.3904405402 -0.6710084866
*
