! r2scan-3c def2/J RI DEFGRID2 scfconv6 printgap
%output
    printlevel normal
end
* xyz 0 1
C -1.0485453124 0.7707047701 -0.0705070659
C -1.0500926557 -0.7684770062 -0.0716857129
C 0.4239389545 -1.1435580241 0.1980377493
N 1.2283252956 -0.0015038929 -0.21515391
C 0.4267123786 1.1428362313 0.197129853
H -1.7035161816 1.1821439298 0.6942546117
H -1.3684364828 1.1601552625 -1.0370065618
H -1.7074240723 -1.1800861734 0.6910249632
H -1.3686583949 -1.1555975275 -1.039638175
H 0.5833280213 -1.2839621567 1.2711117916
H 0.7373320087 -2.0478051142 -0.3212236598
H 1.3002084159 -0.0020539682 -1.2292178088
H 0.5875024963 1.2845148597 1.2698286616
H 0.7415687351 2.0456441966 -0.3237551428
*
