! pbe def2-sv(p) def2/J RI DEFGRID1 loosescf d4 GCP(DFT/SV(P)) printgap
%output
    printlevel normal
end
* xyz 0 1
C -1.4602918087 0.545633061 1.3833133333
C -0.9846801128 -0.3269022914 0.2112638812
H -1.0749682143 -1.3975985253 0.4457745291
C 0.5036422911 -0.0966208514 -0.0442888372
F 0.798870418 1.1720078081 -0.3587480979
F 1.2502340425 -0.3980642626 1.0356843059
F 0.9797205293 -0.8572050841 -1.044337231
O -1.612307981 -0.0330263693 -1.0099861733
H -0.6717974841 1.2168439322 1.7125345259
H -1.7657818666 -0.0698560121 2.2221260785
H -2.2986823633 1.1543723653 1.0583748811
H -2.5524288771 -0.2652236738 -0.9553061585
*
