! wb97x-v def2-tzvp def2/J RIJCOSX DEFGRID2 scfconv7 GCP(DFT/TZ) printgap
%output
    printlevel normal
end
%cpcm
    smd true
    smdsolvent "water"
end
* xyz 0 1
C 3.7008738610067824 0.37983509451868364 0.06746791196033303
C 2.2291111170394915 0.32827393771023666 -0.3322341256652066
H 2.159121871352423 0.42798148920909795 -1.4261394246657744
C 1.4332756497438517 1.474758965389693 0.2948242282840912
C -0.04820051582080046 1.3971579078662797 -0.07251159265752975
C -0.6721844378483337 0.059375994851691004 0.3525727343967064
H -0.5219986089017393 -0.04542547537841915 1.4406018402699712
C 0.11531614962784356 -1.083581365807543 -0.3009044026112448
H 0.008385915828401163 -1.0248030725146673 -1.3914973433652102
C 1.596391377137429 -1.0104880259018645 0.05975397496309311
O -0.417605087104079 -2.381827700781986 0.04869643777828144
C -2.195085568994961 -0.026544535936913697 0.10545958702100688
C -2.96137974116774 0.9654160049702522 0.9840209536427917
C -2.590663965936705 0.15203177406381338 -1.3619245336539032
H 4.15996821278087 1.3272188754817642 -0.23591107236963413
H 3.8065569823469794 0.2878081342196046 1.1552413844568445
H 4.268673428163662 -0.434694329575861 -0.3955691992553245
H 1.5433762759866427 1.4252025633372254 1.3881862605582487
H 1.8518254015224307 2.437037954014085 -0.025601372173541272
H -0.5912365858101715 2.2264460027542405 0.39317306311800837
H -0.15240492882215656 1.5185533664806552 -1.1590894329700216
H 1.6967860040258285 -1.1505310309046315 1.147208021805258
H 2.126450638950441 -1.8378990938709006 -0.4279067018639075
H -0.38499542991495567 -2.446811105385258 1.0134246193564032
H -2.5024767026970145 -1.0339812135381967 0.4129218437105762
H -2.7817063362395578 2.0009562033155817 0.6757343399911877
H -2.672472544187162 0.8715280620989615 2.0368043113460708
H -4.039661433562141 0.7860679074428449 0.9139356411037576
H -3.6685569197953654 -0.0008795876932522695 -1.4825946977291307
H -2.0815917181623864 -0.5610689408776878 -2.0180791140876333
H -2.3610116596756696 1.1625153470576102 -1.7167201347182555
*
