! wb97x-v def2-tzvp def2/J RIJCOSX DEFGRID2 scfconv7 GCP(DFT/TZ) printgap
%output
    printlevel normal
end
%cpcm
    smd true
    smdsolvent "water"
end
* xyz 0 1
C -1.4475534325439456 -0.0923518138375627 -0.0002602546549282892
C 0.04829412393229182 0.05720814131203722 -0.0007183292431018958
O 0.5844006335489249 1.180457518383466 0.0005710156280284124
N 0.7704285662142529 -1.0771575820673363 -0.0002690799747168694
H -1.7781614753895025 -1.132555055245751 -0.01749853877018749
H -1.845958125502614 0.3996575004993306 0.8922933524415148
H -1.8507526608969982 0.4319767278237945 -0.8717255464916904
H 1.778903676862285 -1.0268035769728114 0.0023627918455105482
H 0.3228644349934854 -1.979950072027296 -0.0007324466290503684
*
