! pbe def2-sv(p) def2/J RI DEFGRID1 loosescf d4 GCP(DFT/SV(P)) printgap
%output
    printlevel normal
end
* xyz 0 1
C 1.7351158002 0.1244005379 0.8867602916
N 1.1063114228 -0.0414950105 -0.4128434182
C 0.3494732295 -1.2805304855 -0.5464285245
C -1.1265086178 -1.1162761008 -0.112409225
O -1.2808829657 -0.0050134603 0.7524398551
C -0.9767307433 1.2196278025 0.1004902968
C 0.2741152007 1.0826657723 -0.7976114756
H 1.0277056261 0.125283245 1.7248784008
H 2.2809842941 1.0663933203 0.8846514676
H 2.4467800607 -0.6877019554 1.0291988002
H 0.3859615989 -1.5836705988 -1.5977208204
H 0.8409483083 -2.0475236311 0.0510248247
H -1.7771364288 -0.9836656386 -0.988540797
H -1.473466864 -1.9779745024 0.4582507304
H -1.8433909224 1.541871608 -0.4956642437
H -0.8164212709 1.9366378335 0.9072884886
H -0.0262336091 0.9148534932 -1.8352868065
H 0.8683461705 1.9955677066 -0.7536842571
*
