! wb97x-v def2-tzvp def2/J RIJCOSX DEFGRID2 scfconv7 GCP(DFT/TZ) printgap
%output
    printlevel normal
end
* xyz 0 1
C -2.7701232304825703 -0.7870796655180088 2.3629911561487016e-05
O -1.7997495513453328 0.27143619743849334 -4.731547359982529e-06
C -0.47975551938009237 -0.09795952583185638 -4.422208248814568e-06
C -0.014113294655662622 -1.4099351568665865 -6.201349678203157e-06
C 1.3598728447934443 -1.66658578895518 -3.1654724297949564e-06
C 2.269010137627024 -0.6173142788414148 1.4060738930390031e-06
C 1.8075429743143578 0.7002189169504814 1.5338088207346868e-06
C 0.4451986572613614 0.9636202060024743 -1.9626409774598677e-06
O -0.07090659158833239 2.2396939560446123 -1.8658343727696353e-06
H -3.7425282273799096 -0.293680828732711 4.035918343538931e-05
H -2.6725611107567855 -1.4083917063899556 0.8973708011801966
H -2.6725998893758947 -1.408406195106956 -0.8973178340738887
H -0.712294445719446 -2.2380451944408293 -1.0223858372767762e-05
H 1.706594056875598 -2.694622806898775 -4.184942814443027e-06
H 3.336423813279795 -0.8109457784572175 5.070778310628719e-06
H 2.50369942982174 1.5349361543404831 5.182678329976109e-06
H 0.6655815872997723 2.8671936551369144 -2.0866811581200202e-06
*
