! wb97x-v def2-tzvp def2/J RIJCOSX DEFGRID2 scfconv7 GCP(DFT/TZ) printgap
%output
    printlevel normal
end
%cpcm
    smd true
    smdsolvent "water"
end
* xyz 0 1
C -1.618830152243709 -1.6946983217458083 -0.35786344637417233
C -1.5873410143867384 -0.23324380209127626 -0.7960026101628285
C -2.260844016128761 0.6789940872794502 0.22527728668473146
C -0.20012793809675242 0.23658618150441466 -1.181929902802984
Br 1.1026999218074487 0.2137408687493715 0.3459458329091557
H -1.0879580397442947 -1.8271460262060413 0.5906411723260416
H -2.651486510645824 -2.027421991290478 -0.21542567416857936
H -1.1503522528643755 -2.3443308465555237 -1.104614005762098
H -2.143061754717402 -0.15071282707509237 -1.744317199074915
H -3.302273190061764 0.3787846286196111 0.37563923989647
H -2.250174600190023 1.7228713775920206 -0.10525696069149724
H -1.750368982161821 0.6222406313815609 1.1923620278367444
H -0.19441507510585496 1.272848224281042 -1.5193418392932694
H 0.25949863412920443 -0.4074735920874974 -1.9313454685538443
*
