! r2scan-3c def2/J RI DEFGRID2 scfconv6 printgap
%output
    printlevel normal
end
* xyz 0 1
C 4.45894e-05 -0.0001195311 -1.61156e-05
Cl -0.557001815 -0.0023737862 -1.6787186679
Cl -0.694603305 1.3871236272 0.8496390358
Cl 1.7650205589 0.1102619143 0.0354584517
Cl -0.5134305451 -1.4949712598 0.7936266401
*
