! wb97x-v def2-tzvp def2/J RIJCOSX DEFGRID2 scfconv7 GCP(DFT/TZ) printgap
%output
    printlevel normal
end
%cpcm
    smd true
    smdsolvent "water"
end
* xyz 0 1
C -2.507547415949274 -1.1413947023901505 -0.22067728632576203
C -1.721437668259382 0.13063625883987345 -0.17249171920447912
O -2.2720863987658024 1.227205459829207 -0.17035851436695096
C -0.2256169431061637 0.050008982498892254 -0.11749786796916732
C 0.5269857497958816 1.224798545813496 -0.06396273408488548
C 1.9093788736825303 1.1337198058844644 -0.01438023014982466
N 2.5783420727932267 -0.03028758133346095 -0.014358185779188728
C 1.8475490184026004 -1.1518446807824403 -0.06528171993897909
C 0.4588167759386619 -1.1661609181585446 -0.11719523350532328
H -2.208495118029804 -1.7425338574609106 -1.0861621445196745
H -3.5725533812900503 -0.9157521553243292 -0.2754251559351928
H -2.300938673569915 -1.7429272849212576 0.6717617940130074
H 0.04017236260134149 2.1932450233782794 -0.061184731180560836
H 2.512505981705134 2.037365371572532 0.0278857767477301
H 2.3983475210145064 -2.089278254909499 -0.06513314665457155
H -0.0626062092552788 -2.1152260636044495 -0.1565038753418769
*
