! r2scan-3c def2/J RI DEFGRID2 scfconv6 printgap
%output
    printlevel normal
end
%cpcm
    smd true
    smdsolvent "water"
end
* xyz 0 1
C -0.4985023806 1.4143311015 -4.01627e-05
N -0.4225744522 -0.0353301093 0.0010737769
C -1.663066464 -0.7727586897 -0.0005115
C 0.766457971 -0.619996661 0.0005391404
O 1.8423460983 -0.031555026 -0.0004854372
H 0.0268315992 1.8129148141 0.8685936722
H -1.5389663511 1.71925544 0.0236421984
H -0.0141865219 1.8111611958 -0.8930774731
H -2.244848254 -0.5205424385 -0.887905609
H -2.2439778043 -0.5258289988 0.8889537388
H -1.4545257737 -1.8396799386 -0.003762573
H 0.7219966782 -1.722535151 -0.0035108041
*
