! wb97x-v def2-tzvp def2/J RIJCOSX DEFGRID2 scfconv7 GCP(DFT/TZ) printgap
%output
    printlevel normal
end
* xyz 0 1
C -2.688629204395891 0.0002758978541103072 -0.40746957735967637
C -2.0276155282640023 1.206611731944421 -0.18371126512684044
C -0.7096017362273406 1.2066345305984953 0.26079058049784476
C -0.04142304194149582 -0.0002697138377533503 0.48737917763960853
C -0.7099146830501065 -1.2068955720321373 0.2602509520729676
C -2.027936104293284 -1.2063291339768552 -0.18424252256292356
C 1.3684375668549646 -0.0005627710676394165 0.9616799559214517
Cl 2.5460526281612608 0.00017156377144410452 -0.4844327465879232
H -3.71794476047042 0.0004873395696727652 -0.7516038000851073
H -2.5412023230100798 2.147807279419897 -0.35209937362597926
H -0.19217087074338288 2.145526698683349 0.4370717703165988
H -0.1927296607728397 -2.1460016509999673 0.4361131613997426
H -2.5417715756208827 -2.147315963124291 -0.35303760610735563
H 1.6192518702578136 -0.8974641135407468 1.5277028243941035
H 1.6193139152452647 0.8957245538701446 1.5286487352848241
*
