! pbe def2-sv(p) def2/J RI DEFGRID1 loosescf d4 GCP(DFT/SV(P)) printgap
%output
    printlevel normal
end
* xyz 0 1
C -2.4405250573 -0.5462424667 -0.463224052
C -1.3434942566 -0.4523406878 0.6129845275
H -1.7710182994 -0.7676523953 1.5773569484
C -0.7821556967 0.9734731921 0.8046527068
H -1.5964715635 1.6904165326 0.6412349007
C 0.3238191307 1.3313319562 -0.2093757331
H 0.8712611255 2.1902428525 0.1963266208
C 1.3577920354 0.1954494195 -0.3714438706
H 1.3523741763 -0.1349040931 -1.4217637478
C 0.9834079182 -1.0162982122 0.4953035704
H 1.1091117086 -0.7511494085 1.5609179761
O -0.34824845 -1.4041163204 0.2427585106
O 1.8036554915 -2.0700083796 0.1335585714
O 2.6241226316 0.6907042517 -0.0222240924
O -0.2116677024 1.7539435906 -1.4317009296
O -0.2452436417 1.1261337243 2.101465128
O -1.9143217633 -0.4174504112 -1.7628256203
H -3.1657655506 0.2579460794 -0.3363404515
H -2.9478029771 -1.510650495 -0.3587959372
H 1.5063983972 -2.8837857832 0.5692462931
H 3.2755364159 -0.021022372 -0.1148419142
H -0.839188471 1.0753814644 -1.764577355
H -0.95096598 1.3212901039 2.7347125276
H -1.3051578816 -1.1579601668 -1.9076172674
*
