! wb97x-v def2-tzvp def2/J RIJCOSX DEFGRID2 scfconv7 GCP(DFT/TZ) printgap
%output
    printlevel normal
end
%cpcm
    smd true
    smdsolvent "water"
end
* xyz 0 1
C -2.4442385568635396 0.7849430621859297 -0.1806271938433797
O -1.190087780569766 0.571966278696167 0.5294380382603423
C -0.3980931492791696 -0.37465873450382164 0.027202283323222845
O -0.64852718893622 -1.0558195189216302 -0.9444731738540385
C 0.8954626127301818 -0.4916497381187969 0.8298130497809455
C 1.9630146941110245 0.20761923193781112 0.14662998347087922
N 2.8136342623668282 0.7663897198457397 -0.4038909029074556
H -3.036140894925305 -0.13210675270929423 -0.16980613028228522
H -2.23829595671445 1.0955708445852579 -1.2067820140427923
H -2.9499089814338353 1.5769730729323368 0.3681705515060502
H 1.161069953499584 -1.5504946845100582 0.9074281997746069
H 0.7765459539804243 -0.07191632960410317 1.8322108140301983
*
