! pbe def2-sv(p) def2/J RI DEFGRID1 loosescf d4 GCP(DFT/SV(P)) printgap
%output
    printlevel normal
end
* xyz 0 1
C -2.5295201428 -1.3814107182 -0.420778027
C -1.967277733 -0.0201534619 0.0092944684
C -2.4189795467 1.0521384055 -0.9934056867
C -2.5445688099 0.3095646632 1.391967573
C -0.4454447322 -0.0285051397 0.0260549029
C 0.2835674058 -0.8013220088 -0.873811808
C 1.6640062258 -0.7866513192 -0.8928627752
C 2.3686161484 0.0178584442 -0.005167131
C 1.6588970773 0.8060444607 0.8895116347
C 0.2758948695 0.780085685 0.8970001235
O 3.7310449656 0.0020422694 -0.0541146566
H -2.102726065 -2.1783478987 0.1838874857
H -3.6093142725 -1.3906374635 -0.2907695497
H -2.3238599379 -1.5868463381 -1.4673690656
H -2.0471832887 2.030283444 -0.6964777461
H -2.035228131 0.8291816605 -1.9864299489
H -3.5048413815 1.0912488279 -1.039753081
H -2.3477005711 1.3405432113 1.6720464334
H -3.623586655 0.1733390968 1.3810235286
H -2.1224142061 -0.3482225768 2.1481612637
H -0.2218260864 -1.4352523669 -1.5837113669
H 2.2158405008 -1.3942649018 -1.5933195818
H 2.1854530849 1.4451776665 1.5843217349
H -0.234312238 1.4118524889 1.6055752572
H 4.0989469249 0.6033854194 0.6105028054
*
