! r2scan-3c def2/J RI DEFGRID2 scfconv6 printgap
%output
    printlevel normal
end
* xyz 0 1
C -4.0851087227 0.0042425462 0.0041708004
C -3.3980461993 0.9346756332 0.7652744573
C -2.0140744744 0.9249267695 0.7567789861
C -1.2991776857 0.0005481836 0.0002866837
C -2.0185453415 -0.9219377585 -0.7542728793
C -3.4025683401 -0.9279830134 -0.7588774026
Cl -1.1430408597 -2.0734815447 -1.7112123018
C 0.180230978 -0.0009768442 -0.0010506934
C 0.8996953506 0.9203620551 -0.7579559443
C 2.284458297 0.9332770556 -0.7683918805
C 2.9612986935 -0.0011927254 -0.0006205002
C 2.2840605893 -0.9359043107 0.7665016031
C 0.8992964194 -0.9228017487 0.75563806
Cl 0.0354252773 -2.0715054721 1.7114576585
Cl 4.6867792646 -0.0007362071 0.0003494475
Cl 0.0363166587 2.0687038118 -1.7147184233
Cl -1.1329322966 2.0742415419 1.7112610301
H -5.162597373 0.0057236393 0.0055006241
H -3.9237454659 1.6615572294 1.3615305532
H -3.9319585555 -1.6531608854 -1.3538351814
H 2.8195118795 1.6548810018 -1.3624824553
H 2.8188735526 -1.6575175792 1.3608248929
*
