! pbe def2-sv(p) def2/J RI DEFGRID1 loosescf d4 GCP(DFT/SV(P)) printgap
%output
    printlevel normal
end
* xyz 0 1
C -2.0904550584 -1.2193795223 -0.1899456365
C -1.240094168 -0.3720174795 0.7690638338
H -1.8306357602 -0.2409195477 1.6825035792
C -0.9207398847 1.0178824523 0.173071645
H -1.2038497849 1.04323404 -0.8846547127
C 0.5865965508 1.2863327558 0.2625891919
H 0.890839894 1.3534306383 1.3204910943
C 1.3357369512 0.1189418988 -0.3867544108
H 0.9962988128 0.0292204418 -1.4307588354
C 1.010924567 -1.1903144313 0.3643058113
H 1.8603167257 -1.4341187804 1.0132304068
O -0.0758538305 -1.0378098763 1.2494254627
O 0.8572877418 -2.2722789119 -0.4857089666
O 2.7259357663 0.3073558687 -0.3466174066
O 0.940356983 2.4663286255 -0.4175244366
O -1.6587104672 2.0522625647 0.7738225895
O -1.4949802662 -1.2712740646 -1.474420269
H -3.0776229703 -0.7504340303 -0.2498152099
H -2.1836611033 -2.2266887655 0.2318949059
H 0.105758346 -2.0880218776 -1.0901372772
H 2.9206392183 1.1855897592 -0.7114216841
H 0.2817972043 3.1491409875 -0.2171436858
H -1.4872424647 2.0710524408 1.7272733084
H -2.1073712935 -1.7011733057 -2.0888852842
*
