! pbe def2-sv(p) def2/J RI DEFGRID1 loosescf d4 GCP(DFT/SV(P)) printgap
%output
    printlevel normal
end
* xyz 0 1
C 3.6835983905 0.3627632037 0.0704776702
C 2.2131712658 0.3033222859 -0.3331920027
H 2.1466043484 0.3686316114 -1.425489083
C 1.4253428211 1.4644393282 0.2710166862
C -0.0449947053 1.3815157527 -0.1257788134
C -0.6741533415 0.0719317251 0.3542785046
H -0.5327419856 -0.0051528658 1.439161384
C 0.1043968752 -1.1028590157 -0.2706035641
H 0.021716536 -1.0543787157 -1.3674519762
C 1.5835101713 -1.0141453517 0.110894565
O -0.3480019348 -2.3702614921 0.180034265
C -2.1933260351 -0.0073889696 0.0946071605
C -2.9610088824 0.9388696023 1.0189818613
C -2.5834619233 0.2629953217 -1.3582176109
H 4.1307753935 1.2973882582 -0.259278635
H 3.7819746372 0.2962597962 1.1516057627
H 4.2356823293 -0.4609126215 -0.3753973232
H 1.5138760836 1.4311492481 1.3591524741
H 1.8450209732 2.4126357349 -0.0709119214
H -0.5829046215 2.2269299637 0.3035851605
H -0.1207317144 1.4449577059 -1.212618906
H 1.6602512215 -1.1202622196 1.1950017894
H 2.1055516451 -1.8606717826 -0.3395269865
H -1.2177114803 -2.5567467508 -0.195536033
H -2.5090473799 -1.0253416161 0.3522098365
H -2.7381316957 1.9772229708 0.7879944048
H -2.7046691369 0.7528311072 2.0592868129
H -4.0313888341 0.7892255622 0.89793364
H -2.4201952202 1.3069070842 -1.6121791044
H -3.6389157126 0.0427615116 -1.5021876037
H -2.0117455203 -0.3539595873 -2.046719709
*
