! pbe def2-sv(p) def2/J RI DEFGRID1 loosescf d4 GCP(DFT/SV(P)) printgap
%output
    printlevel normal
end
* xyz 0 1
C -2.819281045 -0.406014969 0.0002293318
O -1.3920404752 -0.6127698824 -0.0009208951
C -0.6041506771 0.4152091287 -0.0010140734
O -0.8795073795 1.5844750965 -0.0004189948
C 0.8760393831 -0.0776955481 -0.0004137329
F 1.7355502951 0.9415305454 -0.0259693135
F 1.1507440525 -0.8063651022 1.090327523
F 1.1391789153 -0.8508279314 -1.06257614
H -3.0438501363 0.6592675057 -0.0158228364
H -3.207640166 -0.8745489681 0.9018692978
H -3.2114601893 -0.9033444301 -0.8840864971
*
