! pbe def2-sv(p) def2/J RI DEFGRID1 loosescf d4 GCP(DFT/SV(P)) printgap
%output
    printlevel normal
end
* xyz 0 1
C -1.9545647692 -1.251589654 -0.3504933745
C -1.2660007495 -0.4113272454 0.7386225874
H -1.9410968307 -0.3433843118 1.59767987
C -0.9835224722 1.0256703855 0.2575139572
H -1.3911069254 1.1430436619 -0.7583117105
C 0.5275686654 1.2804147073 0.2007171167
H 0.9044431182 1.4301770193 1.2191950803
C 1.2438112049 0.074706834 -0.4197950485
H 0.8220772033 -0.1383887911 -1.4138696598
C 1.0191586278 -1.158134556 0.4652863982
H 1.8631132514 -1.2266012659 1.1687685927
O -0.1142018256 -1.0340411999 1.2928734603
O 0.9536986562 -2.2858294977 -0.3449740995
O 2.6276561686 0.3025180422 -0.5143585012
O 0.8371109669 2.4617217925 -0.4980572978
O -1.6288942981 1.917710554 1.1356213786
O -1.3979205976 -0.9881600917 -1.6204491695
H -3.0202166388 -0.9874733677 -0.3510598126
H -1.8431708637 -2.3066496157 -0.0829084694
H 1.0117290146 -3.0879419774 0.1959969032
H 2.763182329 1.2345383135 -0.7558723541
H 0.492373416 2.3997999381 -1.402604425
H -1.3469257958 2.8223403762 0.930669958
H -1.7475550626 -1.6285482221 -2.2554644563
*
