! r2scan-3c def2/J RI DEFGRID2 scfconv6 printgap
%output
    printlevel normal
end
%cpcm
    smd true
    smdsolvent "water"
end
* xyz 0 1
C -2.5831954501 -0.7018065241 0.6285202312
C -1.4689855588 -0.0225166204 -0.1178949716
O -1.5022511706 0.1027226571 -1.3259702467
C -0.3511478401 0.5304506541 0.7476710778
C 0.5478857469 1.5156110304 -0.0090272556
C 1.4284158578 0.8235103815 -1.0480143186
C 2.2524066585 -0.291785378 -0.4136309816
C 1.3310988846 -1.2945331411 0.2731396908
C 0.508464257 -0.5945279187 1.3492932125
H -2.1952140603 -1.4288070704 1.3346979801
H -3.1352131851 0.0498506762 1.1885944565
H -3.256202071 -1.1865824921 -0.0734275768
H -0.8378080348 1.0596698764 1.57447103
H -0.0748836965 2.2629984657 -0.5054899478
H 1.1835267172 2.0292919293 0.7156281333
H 0.7949449505 0.4062615268 -1.8321879637
H 2.0884215644 1.561200727 -1.5090578103
H 2.8476874747 -0.7925027926 -1.1792735808
H 2.9384714532 0.1329983215 0.3231066004
H 0.6640963385 -1.7401281528 -0.469198422
H 1.9188555547 -2.0963422558 0.7240762238
H -0.1173580209 -1.3165034444 1.8738335702
H 1.1865211704 -0.147813801 2.0792293156
*
