  12
        -19.46445613
 C         -3.0418027928       -0.0000130486        0.0001601528
 C         -2.3501080096       -1.2001350678        0.0001520042
 C         -0.9651438766       -1.2084938993       -0.0001314340
 C         -0.2931337172        0.0000121566       -0.0001869862
 C         -0.9651242287        1.2085210856       -0.0000100213
 C         -2.3501053750        1.2001385972       -0.0000549674
 Br         1.6332070219       -0.0000043873        0.0000323057
 H         -4.1201844319       -0.0000360713       -0.0000208826
 H         -2.8841647243       -2.1370973602       -0.0003474814
 H         -0.4166917410       -2.1372797357       -0.0007815004
 H         -0.4166532784        2.1373124000       -0.0003952500
 H         -2.8841651302        2.1370931822       -0.0001668457
