! pbe def2-sv(p) def2/J RI DEFGRID1 loosescf d4 GCP(DFT/SV(P)) printgap
%output
    printlevel normal
end
* xyz 0 1
C -1.9724338178 -0.2799340887 -0.9763521848
C -1.4395757531 -0.1724565323 0.4845751862
H -2.270340345 -0.3302047376 1.1825377503
C -0.8118296491 1.2038939413 0.7477082263
H -1.5255936492 1.9806635212 0.4412279427
C 0.4588058237 1.4024525254 -0.0974682103
H 1.1793146521 1.9526939989 0.5260363103
C 1.1082975533 0.0590278884 -0.4597088409
H 0.6632148173 -0.3408337195 -1.3827695347
C 0.8404339811 -0.9518594633 0.660456995
H 1.227573366 -0.5392188336 1.6127065966
O -0.5364636796 -1.2243355318 0.8040089313
O 1.4931510243 -2.1301310534 0.3345208139
O 2.4868098803 0.2722768341 -0.6312333067
O 0.1164966768 2.1483696602 -1.2380574
O -0.4497114685 1.3572034094 2.0995236112
O -1.5410200651 -1.4421093462 -1.6336619691
H -1.6037288205 0.5573458398 -1.5720401686
H -3.0688753744 -0.2377330017 -0.957530729
H 1.2787211363 -2.8152137137 0.9852711638
H 2.9199720749 -0.5877939217 -0.7416923159
H 0.9210388213 2.3350245312 -1.7435694
H -1.2440614453 1.3781108631 2.6535710269
H -1.7430896558 -2.2102258939 -1.0794061588
*
