! wb97x-v def2-tzvp def2/J RIJCOSX DEFGRID2 scfconv7 GCP(DFT/TZ) printgap
%output
    printlevel normal
end
%cpcm
    smd true
    smdsolvent "water"
end
* xyz 0 1
C -2.927329485608411 -0.0008500970638223047 -0.014536662997181512
C -1.423553975914725 0.0010481642217335177 0.010786186157336307
C -0.6955989045853114 1.194687082276554 0.008453853479699121
C 0.6951844979929539 1.2029509974600288 -0.0042871883540093435
C 1.4148973641614284 -3.844835470663627e-05 -0.01581774249126613
C 0.6938985996726238 -1.2029924594879675 -0.004149244011732314
C -0.6961599574230728 -1.1937713656845792 0.00888133745612681
N 2.807599721759412 -0.0012359899531918304 -0.09608239457777554
H -3.331341334386166 0.9223281669988831 0.4104924210406495
H -3.3075432084495016 -0.0829002838350377 -1.0402958510995837
H -3.3331320876914416 -0.8462100169927435 0.5491545981353365
H -1.2276255702150958 2.142828253323165 0.0210604194500978
H 1.2338899858938503 2.1470865851688608 -0.0012154090078918456
H 1.2321808049941378 -2.147390311930812 -0.0010921811495461908
H -1.2290002631796335 -2.1415459546344526 0.021617637231729988
H 3.2394443504351096 -0.8366409005880374 0.27420573850175295
H 3.2408273077609002 0.8340553140625793 0.2728346614278345
*
