! r2scan-3c def2/J RI DEFGRID2 scfconv6 printgap
%output
    printlevel normal
end
%cpcm
    smd true
    smdsolvent "water"
end
* xyz 0 1
C -2.3869179179 0.0425732597 0.1377084142
C -0.9532906596 0.4878742863 -0.1314019935
C -0.0026501176 -0.6742274662 -0.1520354526
C 1.3147644378 -0.6133038155 -0.0303057699
C 2.1370023813 0.6216444706 0.1458539056
H -2.4534920294 -0.4607693194 1.0997672943
H -2.724845308 -0.6450581529 -0.634579644
H -3.056072845 0.8997579251 0.1508912888
H -0.9117739966 1.0021005447 -1.0970005051
H -0.649408781 1.2057969604 0.6335651646
H -0.4687028186 -1.64111756 -0.2907317131
H 1.88678967 -1.5323938359 -0.0644442305
H 2.7427752594 0.5405883098 1.0477674077
H 1.5198015964 1.5118912458 0.2124025504
H 2.817167738 0.7331134723 -0.697998644
*
