! wb97x-v def2-tzvp def2/J RIJCOSX DEFGRID2 scfconv7 GCP(DFT/TZ) printgap
%output
    printlevel normal
end
%cpcm
    smd true
    smdsolvent "water"
end
* xyz 0 1
C -2.6251557603978193 1.558820658736915 0.11259691641482172
C -1.971010342302505 0.18847121446986007 -0.009240385456188521
C -0.460895185477673 0.18192247530508726 0.011410873835384893
C 0.3067583833898562 1.3417676296065606 0.13692666632709072
C 1.7006062245615854 1.3038738494166873 0.15319793611285956
C 2.357373561064717 0.08229582851223621 0.04182046139152752
C 1.6216290491821044 -1.091579318321222 -0.08492183370532087
C 0.23061015653624947 -1.0371671796977278 -0.09939834817989969
O -0.430661645908907 -2.2429839898663455 -0.22936468132411006
H -2.359353942818265 2.049309425321565 1.0542316396115936
H -3.7131438784841206 1.4520192734594672 0.08660296311329808
H -2.333855938441051 2.2189891745363175 -0.7104167508123439
H -2.314116793527635 -0.2864190566962603 -0.9402480013346209
H -2.339075181917933 -0.45280392723195995 0.8054070625591643
H -0.19469974259843129 2.299707185930871 0.223915615538212
H 2.265519856793683 2.225027903647329 0.2518782988850318
H 3.4418736470849414 0.03657878844538554 0.0530428528172544
H 2.1137507909647835 -2.0551273762587394 -0.17267447418997015
H -1.3863404337489298 -2.0972499203037107 -0.21960276709750715
*
