! wb97x-v def2-tzvp def2/J RIJCOSX DEFGRID2 scfconv7 GCP(DFT/TZ) printgap
%output
    printlevel normal
end
%cpcm
    smd true
    smdsolvent "water"
end
* xyz 0 1
C -2.393733669819266 0.08185399114152318 -0.00973764699640369
C -0.9168720695648213 0.46227678510795667 0.052548769993621
C 0.003095485910648983 -0.7172188102530768 -0.11198203375651139
C 1.3374149754321218 -0.6396905957805508 -0.08029145100918807
C 2.0916881362484556 0.6422030225274846 0.1250548580687407
H -2.638975482177124 -0.3810642361248025 -0.9718484322909704
H -3.0350208884722236 0.959886729951652 0.11402450050925574
H -2.6471580333629543 -0.6339234662123179 0.7799242338829383
H -0.692993597359394 1.2111440351275529 -0.7207776427950944
H -0.7028424375014866 0.9634305251566411 1.007477290915655
H -0.4664996786472925 -1.6888238165306144 -0.2673644101931983
H 1.9196336547460695 -1.5499756355349732 -0.21096679495375736
H 1.8175196360566472 1.1200400290068298 1.0743062264517311
H 1.8649628097700652 1.370369715773515 -0.6644106588671859
H 3.171616574452335 0.47854117282112524 0.13037004389911946
*
