! wb97x-v def2-tzvp def2/J RIJCOSX DEFGRID2 scfconv7 GCP(DFT/TZ) printgap
%output
    printlevel normal
end
%cpcm
    smd true
    smdsolvent "water"
end
* xyz 0 1
C -2.8532974128371116 0.2675810555764496 0.36382084354611577
C -2.189535036996585 -0.06114558043177597 -0.966900454680641
C -0.9676852966067273 -0.9408985225404767 -0.8608092954634351
I 0.7050573401483429 0.04233515281073747 0.20022172225291263
H -2.1936825023216686 0.87190381551072 0.9950965144300721
H -3.776665172991116 0.8325909212307664 0.2053484457941257
H -3.10365348717173 -0.6469365023701328 0.9126152847178948
H -1.9476251396426254 0.854604014314031 -1.5169612890163977
H -2.8942029133261533 -0.6262374785547937 -1.595609480501893
H -0.5369625499127676 -1.1905282542133944 -1.8290224800776418
H -1.1414484522189017 -1.8438617894570826 -0.2751201959555341
*
