! pbe def2-sv(p) def2/J RI DEFGRID1 loosescf d4 GCP(DFT/SV(P)) printgap
%output
    printlevel normal
end
* xyz 0 1
C -2.5583499624 -0.6787898414 -0.3227785154
C -1.1728703427 -0.3115013824 0.2214936495
H -1.2041359488 -0.3073114691 1.3234621454
C -0.7150146948 1.0645647102 -0.2847712377
H -0.7482087246 1.0688517025 -1.3801709579
C 0.7330578783 1.3518069744 0.1566601598
H 0.7650616208 1.4957653943 1.2498915536
C 1.6560998711 0.1781548608 -0.1821510961
H 1.7942824648 0.1564453229 -1.2735479225
C 1.0297268926 -1.1553163276 0.285101365
H 1.0262969083 -1.1654373502 1.3891243575
O -0.2731977475 -1.3160842393 -0.214550173
O 1.7875291514 -2.2395087185 -0.1159072531
O 2.8840528084 0.3773671615 0.4697628852
O 1.2231390547 2.4990056462 -0.4909509728
O -1.5718323401 2.0996997473 0.1199967112
O -3.1122678144 -1.7877900247 0.3334104704
H -2.468838965 -0.8624358915 -1.399921778
H -3.2414162879 0.155552381 -0.1562252442
H 1.5849949479 -2.4464468734 -1.042338003
H 3.4556523961 -0.3888675436 0.3064084926
H 0.5608596326 3.2039150232 -0.4122499286
H -1.6325532732 2.1204889429 1.0870120434
H -2.5298578505 -2.5495389683 0.2000259944
*
