! pbe def2-sv(p) def2/J RI DEFGRID1 loosescf d4 GCP(DFT/SV(P)) printgap
%output
    printlevel normal
end
* xyz 0 1
C -2.1472254569 -1.0260967732 -0.4965451704
C -1.1796862576 -0.2394347959 0.3970718638
H -1.7413309549 0.0957542817 1.2777993539
C -0.6176927421 0.9717399484 -0.3625187303
H -0.4910841676 0.7230469244 -1.4229810988
C 0.7604030446 1.3262559039 0.2106809261
H 0.6898968616 1.4396544487 1.3054116657
C 1.7152496147 0.1687746151 -0.099661574
H 1.9375914065 0.1861534217 -1.1771181608
C 1.0389640587 -1.1808870145 0.2188540054
H 1.706384463 -1.7269923674 0.9000467768
O -0.1479665959 -1.047457184 0.9571281464
O 0.8487079104 -1.8685524616 -0.9779164925
O 2.899521541 0.2449610137 0.6489333591
O 1.2708957678 2.5052723174 -0.3606622551
O -1.482441172 2.0764357182 -0.3431327971
O -2.8767778448 -1.9322542947 0.2986606699
H -1.5756519765 -1.5458145423 -1.2732924996
H -2.8185924761 -0.2959284144 -0.9685863072
H 0.6539023349 -2.8008385557 -0.7947016713
H 3.3181346118 1.102409378 0.476110265
H 0.5228726878 3.0804320498 -0.5917542038
H -1.7321420293 2.286355942 0.56991122
H -3.4724054179 -2.4439658532 -0.2664756883
*
