! wb97x-v def2-tzvp def2/J RIJCOSX DEFGRID2 scfconv7 GCP(DFT/TZ) printgap
%output
    printlevel normal
end
%cpcm
    smd true
    smdsolvent "water"
end
* xyz 0 1
C -1.8684067146306405 -5.554727247821104e-07 0.0011248869411301574
C -1.158690149648166 -1.200606731842165 -0.0003115114272960487
C 0.23123498155355932 -1.2074000048731233 -0.00621850382064914
C 0.9481826240187345 2.308415796994468e-06 -0.01272087858341167
C 0.23123240921354957 1.2074033162709208 -0.006221063756051857
C -1.1586927941191256 1.2006071251009922 -0.0003145812119234875
N 2.3362000994753522 3.924555950245556e-06 -0.08592015136521083
H -2.9531829958139246 -1.610949078275807e-06 0.006425477703975879
H -1.6924246746432372 -2.1465434649578716 0.006086344486899392
H 0.7746134923670276 -2.148592692316599 -0.006038644660503563
H 0.774609145831575 2.148597009181011 -0.0060428103619266154
H -1.692429343443457 2.146542605634392 0.006080347827474865
H 2.7751691919021013 -0.8382516511343964 0.2679977666924635
H 2.775166922217573 0.8382627728399795 0.26799239239368905
*
