! pbe def2-sv(p) def2/J RI DEFGRID1 loosescf d4 GCP(DFT/SV(P)) printgap
%output
    printlevel normal
end
* xyz 0 1
C -2.5605968565 -0.8704671109 0.3238198438
C -1.126349389 -0.4242653159 0.6460248745
H -1.0004656415 -0.3499945441 1.7376490397
C -0.8195972096 0.9451962402 0.0057202632
H -1.0539422889 0.8782490845 -1.0636483091
C 0.6678421265 1.2948875565 0.1929583933
H 0.8836742371 1.4289321282 1.2607783856
C 1.5429402089 0.1416169504 -0.3200176059
H 1.4068716322 0.0272094054 -1.4065733839
C 1.1001708773 -1.1734334881 0.3470284988
H 1.2948685691 -1.0952772464 1.4378793223
O -0.2666942911 -1.4285192216 0.1360696812
O 1.8268469115 -2.2001711798 -0.2214697679
O 2.8819736757 0.42245987 -0.0116724969
O 0.9956235056 2.5270951391 -0.3868181383
O -1.6621407031 1.9467739526 0.5093443167
O -2.740064746 -1.1164507405 -1.0452955084
H -3.2473790262 -0.064837812 0.5880325123
H -2.7961143915 -1.765817311 0.9117010176
H 1.4811120669 -3.056959044 0.0737943289
H 3.4348402057 -0.3143788792 -0.3132818323
H 0.8564035733 2.4940288103 -1.3441944445
H -1.3485944239 2.2422695239 1.376282551
H -2.1018230923 -1.7929858526 -1.316464012
*
