! pbe def2-sv(p) def2/J RI DEFGRID1 loosescf d4 GCP(DFT/SV(P)) printgap
%output
    printlevel normal
end
* xyz 0 1
C -0.7616464782 -1.7226082745 -8.152e-07
C 0.5525045932 -1.3007734354 -3.67279e-05
C 0.8395536763 0.0676084267 -6.89348e-05
C -0.1974177436 0.9980912941 -9.87738e-05
C -1.5193896136 0.5676723858 -6.71377e-05
C -1.7947997523 -0.7993310694 7.0531e-05
O -2.4933283007 1.5057033797 4.72875e-05
C 2.222752913 0.5273100826 3.64915e-05
O 3.2057815938 -0.1863030874 2.79026e-05
H -0.9904942686 -2.7765568973 0.0001472349
H 1.3730234688 -2.0012237724 0.0005026992
H 0.0082291762 2.0570100955 3.39831e-05
H -2.8191820588 -1.1411162725 0.0001422074
H -3.3729404955 1.0966362985 0.0002152185
H 2.3384117274 1.6268810037 -0.0002643321
*
