! wb97x-v def2-tzvp def2/J RIJCOSX DEFGRID2 scfconv7 GCP(DFT/TZ) printgap
%output
    printlevel normal
end
%cpcm
    smd true
    smdsolvent "water"
end
* xyz 0 1
C -2.581404452455432 -0.8714128478313082 0.35568774392169455
C -1.1530131123303744 -0.4283314130188722 0.6106893044582421
H -1.0044350483287474 -0.35980505540433866 1.7012105677282565
C -0.8077282562789246 0.9167217815694318 -0.028151729888272223
H -0.9956655541484649 0.8610477917900023 -1.1105952212913912
C 0.6620481541135999 1.2366692332166906 0.20036095232920545
H 0.8311005052256654 1.383095981718499 1.2789650268364225
C 1.5366574643181665 0.08873558497744448 -0.28191858148031884
H 1.432178232290787 -0.01812522706363694 -1.3738414688849034
C 1.0862445959706974 -1.2178686674094614 0.37208817923597665
H 1.2231575315720917 -1.1760698516343537 1.4628553305878509
O -0.29378442839282715 -1.446006841256199 0.06614824469454031
O 1.8200372646257856 -2.3241257919840104 -0.08278499845237558
O 2.8857823741171424 0.40200932517454546 0.07067052125329275
O 0.9461401359544153 2.449567198800831 -0.5086099007269712
O -1.6490598618263819 1.9043344543774787 0.5744295801166319
O -2.910630208119799 -0.9374628893491553 -1.0364809693245944
H -3.2668385773764013 -0.1507778184181846 0.8080840568832727
H -2.7370833868280076 -1.8457711545314717 0.8380386884717447
H 1.8339825183621363 -2.3009858577308147 -1.05208968731004
H 3.458527168887279 -0.25378858464029463 -0.3485003065819269
H 1.8345404344818779 2.7339125056468476 -0.2575493996683814
H -1.3996938871023816 2.7591182090373056 0.197960203448004
H -2.341843436703749 -1.6084727219868202 -1.4366288972860397
*
