  22
        -31.87701317
 C          3.3657757453       -0.1112467482        0.0125894601
 N          1.9483934460       -0.3507840025        0.1781367354
 C          1.6144890776       -1.5975028726        0.8274411511
 C          1.0582159932        0.5649441328       -0.2251712558
 O          1.3965266411        1.6537134519       -0.7039028143
 C         -0.3926474006        0.2267941784       -0.0916137278
 C         -0.9573313230       -0.8038119858       -0.8363844360
 C         -2.3172479368       -1.0478660436       -0.7609763204
 C         -3.1195655080       -0.2703738718        0.0581909657
 C         -2.5624525334        0.7634265528        0.7925725412
 C         -1.2047947719        1.0190917135        0.7109112987
 H          3.4955238939        0.8321916361       -0.5138224809
 H          3.8109622570       -0.9200312614       -0.5672271470
 H          3.8549338213       -0.0531280725        0.9857953304
 H          1.8260205267       -2.4376734680        0.1630512280
 H          0.5650362950       -1.6145728624        1.1058509383
 H          2.2236702342       -1.7022919310        1.7259466040
 H         -0.3323014391       -1.4035690741       -1.4807612977
 H         -2.7508330241       -1.8465808592       -1.3428489575
 H         -4.1791693759       -0.4653995410        0.1190658263
 H         -3.1853129770        1.3765891153        1.4256212043
 H         -0.7623785962        1.8323079824        1.2673489895
  22
        -31.87680302
 C          3.3640960850       -0.0414510608        0.1588321123
 N          1.9429194062       -0.2808687354        0.2851684780
 C          1.5842696716       -1.4008723923        1.1233289491
 C          1.0643258768        0.4995442949       -0.3538480134
 O          1.4078578743        1.4420793936       -1.0752334707
 C         -0.3899082365        0.1904481534       -0.1634951907
 C         -1.0648075128       -0.5763221901       -1.1055616423
 C         -2.4236986541       -0.8024816406       -0.9695081406
 C         -3.1153421361       -0.2581745703        0.0998374454
 C         -2.4472674528        0.5166010919        1.0336869479
 C         -1.0880116156        0.7432412056        0.9039800101
 H          3.5101239003        0.8225164479       -0.4863432805
 H          3.8519283091       -0.9118950279       -0.2810105318
 H          3.7968457221        0.1570457335        1.1397402371
 H          2.0460554071       -2.3095763752        0.7338898045
 H          0.5061857642       -1.5286777463        1.1451941012
 H          1.9476633675       -1.2309956021        2.1381789130
 H         -0.5215973605       -0.9906109975       -1.9420314164
 H         -2.9419427377       -1.4020511753       -1.7019928058
 H         -4.1751338352       -0.4334516809        0.2027031172
 H         -2.9847391178        0.9475375945        1.8643549215
 H         -0.5636789734        1.3515037095        1.6260425669
  22
        -31.87572502
 C          3.3573322739       -0.0689168049        0.1721618995
 N          1.9296896228       -0.2800467723        0.2754206633
 C          1.4805758579       -1.3989649570        1.0808684360
 C          1.0738317694        0.5283701717       -0.3600473134
 O          1.4338745297        1.4808643297       -1.0592901097
 C         -0.3791951314        0.2134484595       -0.1741039361
 C         -1.0416021321       -0.5900007743       -1.0932924811
 C         -2.3939647729       -0.8445205901       -0.9427335024
 C         -3.0902679372       -0.2952870809        0.1208974513
 C         -2.4345513968        0.5160621770        1.0319046163
 C         -1.0822103675        0.7721891747        0.8859835209
 H          3.5247858070        0.8008198187       -0.4606821576
 H          3.8350157685       -0.9404293741       -0.2761650334
 H          3.7818750495        0.1140366098        1.1595445179
 H          0.8564769358       -1.0576373040        1.9072472368
 H          2.3534617049       -1.9059385971        1.4812440559
 H          0.9038595543       -2.1027989596        0.4798043454
 H         -0.4956968636       -1.0080464033       -1.9265465096
 H         -2.9036388066       -1.4705755843       -1.6589814553
 H         -4.1444268498       -0.4948204948        0.2367081725
 H         -2.9759326403        0.9522858994        1.8573294610
 H         -0.5681868238        1.4120198396        1.5885013934
