  15
        -17.73382020
 C          2.0677058495        0.0307817241       -0.1261283330
 C          0.7630546935        0.6935778507        0.3005572822
 C         -0.4591259377        0.0059190177       -0.3232098581
 H         -0.3246161897       -0.0535410279       -1.4095374853
 C         -1.7429213408        0.7750018153       -0.0090458770
 O         -0.5591577061       -1.3474536295        0.0860552642
 H          2.2220995888        0.1529075637       -1.1957576963
 H          2.0348810710       -1.0342571775        0.0920543964
 H          2.9109003634        0.4711371620        0.3994297743
 H          0.7637738970        1.7415376173       -0.0012473010
 H          0.6711834948        0.6557391588        1.3888361098
 H         -2.6014497081        0.2382931706       -0.4050545649
 H         -1.8635314132        0.8864219715        1.0666209504
 H         -1.7069491656        1.7618107478       -0.4603575918
 H         -0.7223995052       -1.3685260714        1.0397091633
  15
        -17.73357456
 C          1.8680852264        0.9259368673       -0.2736146131
 C          0.9644302025       -0.0752186278        0.4352611018
 C         -0.3800830642       -0.2849022723       -0.2753289603
 H         -0.1959657980       -0.5349349897       -1.3268431930
 C         -1.2786988853        0.9481692654       -0.1951283975
 O         -1.0429832287       -1.4310349141        0.2379980930
 H          1.4324889676        1.9210968863       -0.2625545968
 H          2.0272501704        0.6289856212       -1.3075161700
 H          2.8335145186        0.9713751461        0.2236729313
 H          0.7791527997        0.2592093672        1.4590856510
 H          1.4663326232       -1.0444836099        0.4840962795
 H         -1.4095996736        1.2558377287        0.8403633534
 H         -0.8433616775        1.7697961673       -0.7542608790
 H         -2.2528534936        0.7171788476       -0.6193198937
 H         -1.2676524895       -1.2695500290        1.1652726733
  15
        -17.73211862
 C          2.0668097546        0.0325076369       -0.1199444609
 C          0.7597129316        0.6681383516        0.3379886641
 C         -0.4570040084        0.0212882793       -0.3298608139
 H         -0.3059364286        0.0280902975       -1.4226015298
 C         -1.7402563598        0.7823924068        0.0041044807
 O         -0.5236259016       -1.3238676898        0.1188798488
 H          2.2083389027        0.1797166013       -1.1884246292
 H          2.0475237895       -1.0353012714        0.0826953094
 H          2.9083181958        0.4743865277        0.4068380219
 H          0.7622871839        1.7334552357        0.1049148596
 H          0.6548214882        0.5485533119        1.4175854005
 H         -2.5973128712        0.3223608968       -0.4826599552
 H         -1.9027361220        0.7751418225        1.0792953044
 H         -1.6610784903        1.8110117383       -0.3346483248
 H         -1.3008848706       -1.7489153310       -0.2665070045
  15
        -17.73206775
 C          1.8849825720        0.9081200777       -0.2403572002
 C          0.9510173463       -0.0853811007        0.4371051555
 C         -0.3841612355       -0.2627199042       -0.2927929606
 H         -0.1798773449       -0.4477193345       -1.3613051856
 C         -1.2893750554        0.9597300957       -0.1590132448
 O         -0.9957392658       -1.4190524064        0.2635868483
 H          2.8396201608        0.9290746345        0.2782101865
 H          1.4677887801        1.9112066055       -0.2252104046
 H          2.0610964002        0.6213019953       -1.2745273653
 H          0.7470713028        0.2254314111        1.4631640997
 H          1.4263571683       -1.0675451192        0.4799965283
 H         -0.8030074911        1.8336534631       -0.5800464345
 H         -2.2263113312        0.8003404736       -0.6884524894
 H         -1.5066236555        1.1439573558        0.8905845103
 H         -1.8724355759       -1.5340767018       -0.1271190614
  15
        -17.73162261
 C          1.8428406622        0.9773175381       -0.2269544009
 C          0.9788044424       -0.1058809816        0.4069084442
 C         -0.3733427037       -0.2858398178       -0.2954188057
 H         -0.1974407483       -0.4761644522       -1.3679835932
 C         -1.2730632982        0.9372859293       -0.1532342243
 O         -1.0878519700       -1.3844590989        0.2549268037
 H          1.9726201669        0.7856002678       -1.2897737579
 H          2.8228666031        0.9916657054        0.2427650457
 H          1.3925551989        1.9579766897       -0.1043918451
 H          0.7959006227        0.1276857850        1.4577970841
 H          1.5175941177       -1.0565217027        0.3661752326
 H         -2.2514077000        0.7101602743       -0.5681843976
 H         -1.3944305992        1.1847005595        0.8980192770
 H         -0.8512074353        1.7851588373       -0.6817701417
 H         -0.5434678398       -2.1810882888        0.2026500324
  15
        -17.73156128
 C          1.7164429314        0.4461205995        0.6064168711
 C          0.8969128703        0.3470204944       -0.6767817113
 C         -0.5662612534       -0.0846544045       -0.4729840834
 H         -1.0518319854       -0.0944769791       -1.4568962152
 C         -1.3378219328        0.8578961036        0.4500184280
 O         -0.6642595222       -1.4296932432       -0.0350858101
 H          1.7313949150       -0.5041661634        1.1349257476
 H          1.3212898084        1.2128644756        1.2670162405
 H          2.7429291829        0.7076267308        0.3618693407
 H          1.3642935237       -0.3807796221       -1.3438851002
 H          0.8946757349        1.3133222645       -1.1830499988
 H         -0.9296724707        0.8313554979        1.4571166194
 H         -1.2827998064        1.8743914226        0.0721928337
 H         -2.3807654235        0.5538953115        0.4935306800
 H         -0.3172565663       -1.4851938767        0.8662462298
  15
        -17.73104570
 C          1.6889131290        0.3956349853        0.6279780301
 C          0.8958470476        0.3602796921       -0.6734326871
 C         -0.5674291349       -0.0598451038       -0.4840266663
 H         -1.0544059885       -0.0233881747       -1.4748323717
 C         -1.3293132662        0.8599085671        0.4695676423
 O         -0.5702644960       -1.4036509781       -0.0262132278
 H          2.7435297234        0.5500789839        0.4153537652
 H          1.5747774007       -0.5499402603        1.1520488259
 H          1.3479692859        1.2008737270        1.2726147559
 H          1.3556469129       -0.3626250421       -1.3501507873
 H          0.9162442843        1.3391827906       -1.1542124500
 H         -0.9545868050        0.7411170427        1.4823805762
 H         -1.2060304215        1.8941242279        0.1623930630
 H         -2.3904285015        0.6202013451        0.4606929473
 H         -1.4792006546       -1.6701807768        0.1637418329
  15
        -17.73101470
 C          2.0900840524        0.0837283314       -0.1274562229
 C          0.7591480873        0.6689804881        0.3346528299
 C         -0.4558879207        0.0035171352       -0.3263349053
 H         -0.3122828411        0.0011249705       -1.4201222525
 C         -1.7400614343        0.7597387324        0.0020127215
 O         -0.6391224472       -1.3325285238        0.1167864187
 H          2.1921407286       -0.9553545016        0.1771988093
 H          2.9134388459        0.6416718207        0.3108191584
 H          2.1755239325        0.1402301287       -1.2107807202
 H          0.7315399411        1.7326347524        0.0950780487
 H          0.6631517616        0.5614942694        1.4169716389
 H         -1.6930616788        1.7707495373       -0.3899283311
 H         -2.5889507635        0.2427693024       -0.4368666901
 H         -1.8781925970        0.7947434969        1.0793783552
 H          0.1571209303       -1.8427672978       -0.0798591040
  15
        -17.73083387
 C          1.6875908092        0.3884849095        0.6402676892
 C          0.8933455922        0.4089577144       -0.6616293050
 C         -0.5631646500       -0.0516934172       -0.4890873544
 H         -1.0563394942        0.0081055107       -1.4749878843
 C         -1.3420270446        0.8179185987        0.4929297430
 O         -0.6386923069       -1.3887342840       -0.0186595022
 H          1.3666145188        1.1866319551        1.3034369770
 H          2.7471600000        0.5187199796        0.4358102684
 H          1.5444569352       -0.5620724036        1.1493285330
 H          1.3769114258       -0.2497087352       -1.3878260567
 H          0.8877910254        1.4155855630       -1.0816388873
 H         -2.3853104900        0.5143342980        0.4988217790
 H         -0.9450751201        0.6880009227        1.4949453344
 H         -1.2734689564        1.8618953905        0.2038157646
 H         -0.1767981578       -1.9704575660       -0.6367557677
