! pbe def2-sv(p) def2/J RI DEFGRID1 loosescf d4 GCP(DFT/SV(P)) printgap
%output
    printlevel normal
end
* xyz 0 1
C -1.9618801726 -0.2242226889 0.5005099507
C -1.175248774 -0.1096816397 -0.7994306552
C 0.1137191007 0.6847398911 -0.6477710465
S 1.3805043843 -0.1634485242 0.3712674356
H -1.4072841205 -0.8017651166 1.2364707629
H -2.1680655355 0.7620301457 0.9107838387
H -2.9082417356 -0.727012067 0.3204371042
H -1.7862728513 0.3958194539 -1.5509660258
H -0.937666356 -1.1073646729 -1.1744219108
H 0.5989259906 0.8176886928 -1.6145708613
H -0.0645865104 1.6611106645 -0.2000221425
H 0.7836376644 0.0185497213 1.5423505517
*
