! pbe def2-sv(p) def2/J RI DEFGRID1 loosescf d4 GCP(DFT/SV(P)) printgap
%output
    printlevel normal
end
* xyz 0 1
C -2.3552033669 -1.0025999103 0.4062876776
C -1.0682062268 -0.2600089544 0.8226451812
H -1.2579952019 0.1913791988 1.805018362
C -0.6724937203 0.8534693884 -0.1624097638
H -0.6949181398 0.4731244977 -1.1904280634
C 0.7653440228 1.2928222967 0.1655685196
H 0.8447427723 1.5333006628 1.232840767
C 1.7327352442 0.1261692928 -0.1114957117
H 2.0631036074 0.1762890564 -1.1587049125
C 0.9953350878 -1.2263831092 0.0567859076
H 1.7008286808 -1.9784940921 0.4487714155
O -0.0019819558 -1.1881034604 1.0339526374
O 0.5230476451 -1.6073006644 -1.2007088213
O 2.8178827663 0.2548678556 0.7691263556
O 1.1244172572 2.4713904557 -0.5012275699
O -1.5883204886 1.914822464 -0.1317925114
O -2.2597864861 -1.6593356026 -0.836195882
H -3.1804166078 -0.2853331291 0.4146840283
H -2.5440368879 -1.7837494371 1.1460759009
H -0.259919498 -2.1814680165 -1.0955532165
H 3.539873508 -0.3319888111 0.5027549917
H 1.0310816284 2.3533569666 -1.4580530296
H -1.4142379985 2.4823082829 0.6325215769
H -2.4149455945 -1.0263332427 -1.5503121537
*
