! wb97x-v def2-tzvp def2/J RIJCOSX DEFGRID2 scfconv7 GCP(DFT/TZ) printgap
%output
    printlevel normal
end
* xyz 0 1
C 1.808522401932903 -0.04474225954654447 1.0048832745385505
C 0.9563709733127473 -0.33822112228385626 -0.2169911859793891
H 1.0301316661261255 -1.4000990037508187 -0.4926083036998708
C -0.5178055303883276 -0.0829942089150262 0.055117851686992736
F -1.288424959837364 -0.36394926393233507 -1.023274009971877
F -0.9612406500291131 -0.8564643971569724 1.073484272957701
F -0.7704927949027358 1.2048371940940814 0.3911374019221681
O 1.2805606323861736 0.4993608168118322 -1.327318760784691
H 2.8564086495985155 -0.22868145176383334 0.7537913739691635
H 1.539651615791444 -0.7008822277615474 1.8365630652988616
H 1.6991505367127901 0.9978221049669612 1.3154233240738056
H 2.2134633211729526 0.35205557377379704 -1.5310411132728698
*
