! wb97x-v def2-tzvp def2/J RIJCOSX DEFGRID2 scfconv7 GCP(DFT/TZ) printgap
%output
    printlevel normal
end
* xyz 0 1
C 1.9008285654638273 -1.4667977657442233 2.3886665640008554e-05
C 2.5862860527662366 -0.24297343311437783 7.661845706076688e-05
C 1.9025269706794044 0.9570613933081707 5.873287035342777e-05
C 0.5030999102597826 0.9792093850639972 -2.1042441978393127e-05
C -0.18083391286966471 -0.2614642623882412 -7.0994618602469e-05
C 0.5235602131119605 -1.4740618897994135 -5.906762041137426e-05
N -1.615500407711291 -0.31258728955474896 1.979797532879847e-05
O -2.185216519082291 -1.4008624979786612 3.4482921642527825e-05
O -2.252487763317141 0.7645385656713576 2.3445458282620718e-05
O -0.09915727013457731 2.1805047800413533 -4.5051380119632e-07
H 2.4484050551323415 -2.401918898934476 6.403458955232635e-05
H 3.6713055559697216 -0.23350178548009243 0.00014508096096918694
H 2.427238514299077 1.9063017618520204 0.00011862835679201323
H -0.031964489452049966 -2.403376995278348 -7.60780562660472e-05
H -1.0700930063776737 2.016445074739412 -3.0819173083025516e-05
*
