! pbe def2-sv(p) def2/J RI DEFGRID1 loosescf d4 GCP(DFT/SV(P)) printgap
%output
    printlevel normal
end
* xyz 0 1
C -2.1042903694 -0.5551668622 -0.7107317823
C -1.3563085675 -0.3219525736 0.6055947281
C -0.0082887245 0.2817252602 0.3113281186
O 0.2472315184 1.4674769978 0.3536385215
O 0.8696167747 -0.6456080735 -0.0494920236
C 2.1879919974 -0.2338823632 -0.4210733677
H -1.5512266063 -1.2466543667 -1.3408560735
H -3.0850479464 -0.9729217614 -0.5049958702
H -2.2290016776 0.3834676154 -1.2453681706
H -1.2114456117 -1.2705154285 1.1207788799
H -1.9135902815 0.3691832705 1.2367147472
H 2.1631037775 0.780868864 -0.8200382668
H 2.5293702585 -0.9424624685 -1.1705077858
H 2.8330021913 -0.2650328741 0.4570079415
*
