! wb97x-v def2-tzvp def2/J RIJCOSX DEFGRID2 scfconv7 GCP(DFT/TZ) printgap
%output
    printlevel normal
end
* xyz 0 1
C -2.4956846652729086 -1.0748505886181645 0.31026435112338946
C -1.0896003261842666 -0.5717417180660455 0.5339283558352894
H -0.9078160796414434 -0.5657573350712026 1.621506203512876
C -0.8354924160174417 0.836600516513519 -0.020239258689765904
H -1.019193842255689 0.8449764819316798 -1.1024570398315174
C 0.6129318010609303 1.2190773805272876 0.244051401406141
H 0.7645197442598256 1.2901396613912228 1.3333787656648244
C 1.5630196432773746 0.16887979063604366 -0.31612024755663537
H 1.474718428191102 0.14638532561452028 -1.4137116928999185
C 1.1858961429696875 -1.206420586776196 0.21773860186795224
H 1.3136558388171362 -1.2485367569605648 1.312414216466918
O -0.17995431557284622 -1.4855352169920177 -0.10718198473844408
O 1.9823753786530272 -2.1667099737579854 -0.4231880313001984
O 2.911714470231349 0.4331388887885364 0.0753568654212152
O 0.9571987579173451 2.4622280641453123 -0.3784902842653437
O -1.653542769080494 1.8113545933791655 0.6370964211513291
O -2.8072339371794834 -1.0215729829427982 -1.0895338186196748
H -3.186984169424323 -0.44825983230974487 0.88924649799313
H -2.5675751423712585 -2.104091363634679 0.6859124924210909
H 1.9456789320607786 -2.9819966500015807 0.09501903960042231
H 3.1251280232672385 1.32536680480613 -0.23001024193016584
H 0.430650896999731 3.1516189711220406 0.047519718079483145
H -2.530125589185537 1.7879191495582094 0.2321725003759129
H -3.717635569658821 -1.325111654235979 -1.1916786191474789
*
