  23
        -32.93606924
 C         -3.4268450295       -0.1218726031        0.0003692911
 C         -2.9891221013        1.1945318745        0.0002621646
 C         -1.6362326664        1.4920942724       -0.0000743446
 C         -0.7267743910        0.4463675623       -0.0002987218
 C         -1.1707689124       -0.8854978374       -0.0002276255
 C         -2.5197732306       -1.1729449469        0.0001112624
 C         -0.0000110066       -1.8243270764       -0.0003368674
 C          1.1707558688       -0.8855157200       -0.0001211756
 C          0.7267827350        0.4463768826       -0.0003763276
 C          1.6362478329        1.4920837216       -0.0003913859
 C          2.9891535377        1.1945161944        0.0001446519
 C          3.4268292379       -0.1218820229        0.0005148405
 C          2.5197504438       -1.1729524160        0.0002531570
 H         -4.4863704380       -0.3307362377        0.0008700719
 H         -3.7130210011        1.9961163357        0.0006481274
 H         -1.2987711650        2.5178039179       -0.0000723524
 H         -2.8679602905       -2.1954291355        0.0002139459
 H         -0.0000888382       -2.4704440506        0.8798995014
 H          0.0000501432       -2.4699302824       -0.8809588910
 H          1.2988788599        2.5178431832       -0.0002413199
 H          3.7131366389        1.9960267325        0.0003601803
 H          4.4863250646       -0.3308130025        0.0009232168
 H          2.8679125667       -2.1954393207        0.0003962660
