! pbe def2-sv(p) def2/J RI DEFGRID1 loosescf d4 GCP(DFT/SV(P)) printgap
%output
    printlevel normal
end
* xyz 0 1
C -2.2843484072 -1.0555198614 -0.2503593399
C -0.906548436 -0.5467935428 0.1704520128
H -0.768006294 -0.7209010433 1.2470907931
C -0.7547134896 0.9691441132 -0.0881353057
H -1.344777775 1.2524744417 -0.9745486231
C 0.723253892 1.2648376894 -0.4036717781
H 0.9259014947 2.3127234612 -0.1590862776
C 1.6344257276 0.3430983919 0.4334172357
H 2.6857618958 0.5671305671 0.1948894321
C 1.3657097773 -1.1289633007 0.0317280297
H 1.4146240246 -1.7421780845 0.9453209218
O 0.0797202233 -1.260659785 -0.5577523502
O 2.3001608217 -1.6446235161 -0.8364600046
O 1.4062035019 0.4501397296 1.8139138262
O 1.0028370333 1.1142934842 -1.7738399686
O -1.1451249306 1.7389623805 1.0168729908
O -3.2445302426 -0.2852457017 0.434351954
H -2.3611216499 -2.1182479665 0.0044422304
H -2.3870950858 -0.9433950641 -1.3368666381
H 2.3239504598 -1.1240033446 -1.6563669151
H 1.4097338549 1.3816789312 2.0788480838
H 0.6014508163 0.2834085995 -2.0754303676
H -2.0595729753 1.5056671741 1.2414254019
H -4.1306268101 -0.60846369 0.2191013792
*
