! pbe def2-sv(p) def2/J RI DEFGRID1 loosescf d4 GCP(DFT/SV(P)) printgap
%output
    printlevel normal
end
* xyz 0 1
C -2.163645347 -1.2408165205 -0.0327010957
C -1.2077509511 -0.3533392257 0.7938962183
H -1.7024421797 -0.1025063246 1.7383334508
C -0.8636063719 0.9556880992 0.0554189591
H -1.0441428574 0.8304626666 -1.0214084956
C 0.6215444691 1.2857642343 0.2536561852
H 0.8128896138 1.3724030064 1.3372122301
C 1.4629835143 0.1439080401 -0.3182636161
H 1.2924249578 0.081893629 -1.3986720757
C 1.0215790983 -1.1950633113 0.3254402564
H 1.8459685513 -1.5629795513 0.9504340161
O -0.0451904561 -1.0609642311 1.2285654818
O 0.735973814 -2.1058594953 -0.6965474508
O 2.8412884595 0.3435224725 -0.1664105575
O 0.9694657112 2.4791992334 -0.3954710638
O -1.5947679507 2.0529927324 0.555218311
O -1.8381836111 -1.328343636 -1.3962775258
H -3.1655993931 -0.8094350436 0.0036010258
H -2.1925339996 -2.2348386797 0.4306976566
H 0.755259721 -3.0144147807 -0.3569883829
H 3.0274385885 0.7552214613 0.6900674723
H 0.3108496518 3.1506942944 -0.1568924168
H -2.5088442196 2.0119656683 0.2442734157
H -0.9411100907 -1.7065427751 -1.4754137987
*
