! pbe def2-sv(p) def2/J RI DEFGRID1 loosescf d4 GCP(DFT/SV(P)) printgap
%output
    printlevel normal
end
* xyz 0 1
C -2.346106066 -0.913766093 0.5815791033
C -0.8973158975 -0.4104992561 0.6385647843
H -0.5640189886 -0.3893689949 1.6848945436
C -0.7407283684 0.9995996351 0.0379471765
H -1.3355524042 1.0630433909 -0.884085371
C 0.7357672732 1.2709604896 -0.3452525615
H 0.9557856679 2.2938051052 -0.0155936429
C 1.6840666389 0.2860043735 0.3567114687
H 2.6970662731 0.4336656767 -0.0475289478
C 1.2812027649 -1.1544983716 -0.0040400778
H 1.6745450131 -1.821257849 0.7865895592
O -0.1141879829 -1.3409996288 -0.0969737656
O 1.8342789968 -1.4529703658 -1.2414788408
O 1.6800835713 0.398285669 1.7549438773
O 0.9423681149 1.2567209483 -1.7339740632
O -1.1275869185 1.9951514013 0.9555979097
O -2.8927116315 -0.8644030655 -0.7105626984
H -2.9759123689 -0.2798385443 1.2070354201
H -2.3691676989 -1.9365491268 0.9759405063
H 1.5996625297 -2.3586102968 -1.4989034275
H 1.9415402419 1.2947440849 2.0112026403
H 1.1064354134 0.3447469607 -2.0270546387
H -2.0909269707 2.0120482207 1.0334832786
H -2.3809339852 -1.4531638232 -1.2828521321
*
