! wb97x-v def2-tzvp def2/J RIJCOSX DEFGRID2 scfconv7 GCP(DFT/TZ) printgap
%output
    printlevel normal
end
%cpcm
    smd true
    smdsolvent "water"
end
* xyz 0 1
C -1.1334145859007907 -1.3389924562976665 -0.5081920261251696
C -0.704103050714961 -0.20150184598365375 0.4116118170429234
C -1.5575753922679922 1.0385645130929573 0.27595278255733013
N 0.7525096912140429 0.10550314512157558 0.06567765127855282
O 0.994961695536875 1.0187332078152358 -0.7135706943470219
O 1.6108282468191668 -0.6192173386713405 0.5593050420292064
H -1.1112073697165072 -1.0174503755554063 -1.5537622843977108
H -0.495314749048485 -2.2168033112616388 -0.3807555247835659
H -2.159472854124072 -1.613234448453691 -0.2497004702142434
H -0.6545741475654985 -0.5483773557883619 1.4465084023749673
H -1.1684146192138434 1.8620773253631706 0.8802059439573218
H -2.5599672933938957 0.7914013559763979 0.6369157429621247
H -1.6354542232385252 1.3586987531320442 -0.7658507210438349
*
