! pbe def2-sv(p) def2/J RI DEFGRID1 loosescf d4 GCP(DFT/SV(P)) printgap
%output
    printlevel normal
end
* xyz 0 1
C -2.219158145 0.2554348511 0.3727335087
C -0.9799166432 0.2553641463 -0.5218605826
C 0.0017064159 -0.7868023519 -0.0826351573
C 1.2887886034 -0.5964099871 0.1650157399
C 2.0181924758 0.7077422789 0.0413274052
H -2.7052739192 -0.7175048782 0.3517000134
H -2.9312127092 1.004912649 0.0357274197
H -1.942361751 0.4777048241 1.4009464243
H -1.2863490763 0.040509659 -1.5504034248
H -0.5195001437 1.242639882 -0.5058599063
H -0.4188005713 -1.7771330351 0.0402441123
H 1.8861400256 -1.4377340884 0.4907600427
H 3.0899168448 0.55336659 0.1272903106
H 1.7085916974 1.3943060315 0.8291155816
H 1.8126921982 1.1811713598 -0.9166238714
*
