! wb97x-v def2-tzvp def2/J RIJCOSX DEFGRID2 scfconv7 GCP(DFT/TZ) printgap
%output
    printlevel normal
end
%cpcm
    smd true
    smdsolvent "water"
end
* xyz 0 1
C -1.9525985027645503 -0.10757356245974521 -0.028113475024265148
C -0.5690237970580816 0.5339801879806889 0.026455917754493515
C 0.5266736739974339 -0.5106025324969414 -0.02590244709118425
O 1.804439350601065 0.15907989845981452 0.030203796123415425
H -2.738256208114945 0.652403843504466 0.006565780116853707
H -2.0837924913787553 -0.6835957852305717 -0.9504612663861659
H -2.105865284832862 -0.7872461125420842 0.8170283735356103
H -0.4610096334616461 1.118996316699126 0.947994391615934
H -0.44204925651333066 1.226743173050239 -0.814509057768789
H 0.428705486892407 -1.2043771587894527 0.8217728198983327
H 0.44834143399684795 -1.0939783785501225 -0.9548127282610805
H 2.4892298509984405 -0.5201697347157179 -0.006269428453935185
*
