! pbe def2-sv(p) def2/J RI DEFGRID1 loosescf d4 GCP(DFT/SV(P)) printgap
%output
    printlevel normal
end
* xyz 0 1
C 0.7678957436 -1.1548793831 -0.2882094112
C -0.7777679767 -1.230333562 -0.1499240869
N -1.3500639507 0.015731905 0.346981685
C -0.7481651862 1.1590881946 -0.3212854115
C 0.7852516164 1.2319716314 -0.0820621097
N 1.3248014823 -0.0211529441 0.4332900492
H 1.0510661203 -1.0328833825 -1.3368486461
H 1.2356740241 -2.0650893285 0.0895703588
H -1.231488408 -1.4314985855 -1.1249358794
H -1.0703339407 -2.0289691527 0.5331624416
H -1.1834566469 0.0939987357 1.3468630699
H -0.9627620377 1.0516503691 -1.3876325399
H -1.2399086187 2.0641747151 0.0378995584
H 1.301136923 1.4468043358 -1.0226697282
H 1.0323422506 2.0207611066 0.6298140515
H 1.0944930031 -0.1132895379 1.4192166653
*
