! pbe def2-sv(p) def2/J RI DEFGRID1 loosescf d4 GCP(DFT/SV(P)) printgap
%output
    printlevel normal
end
* xyz 0 1
C -2.9230651274 -1.0560519257 0.3331562127
O -1.7429343479 -0.6971259799 -0.3900125128
C -1.031743159 0.3485616571 0.022195878
O -1.3433656294 1.0233987495 0.9818488229
C 0.1473263206 0.6426896627 -0.8850400295
C 0.8190663833 -0.6175598256 -1.4567611965
C 1.9825195883 -1.0816208699 -0.5715676397
C 1.70631579 -0.7350526102 0.8865460069
C 1.7271741165 0.7842105812 1.0799232009
C 1.1704184908 1.5120358626 -0.1517138643
H -3.6858158916 -1.2872353168 -0.4062071004
H -3.2345465818 -0.2276576834 0.9706446794
H -2.7066593354 -1.9329724526 0.9428349567
H -0.2871458899 1.2169709075 -1.7119118362
H 0.0744387235 -1.4081886752 -1.5430481117
H 1.1897352408 -0.4004740806 -2.4585753285
H 2.1227883477 -2.1568674529 -0.6858175574
H 2.9081424572 -0.5918815856 -0.8771785156
H 0.7273356036 -1.1315927818 1.1681934191
H 2.4465322861 -1.2005338119 1.5385726978
H 1.1323494503 1.0427830501 1.9574410889
H 2.7488571643 1.1208450931 1.2607613293
H 0.7042093214 2.448484952 0.1558707867
H 1.9746921746 1.7456566034 -0.849047327
*
