! pbe def2-sv(p) def2/J RI DEFGRID1 loosescf d4 GCP(DFT/SV(P)) printgap
%output
    printlevel normal
end
* xyz 0 1
C -1.8853061097 -0.5932660687 -0.8243946913
C -1.2149341556 -0.1126912548 0.4760578044
H -1.9640561282 -0.1460732435 1.276560951
C -0.6547387103 1.3118957489 0.3514893573
H -1.4106535707 1.9380769265 -0.1450221613
C 0.643448456 1.3463869312 -0.4831709227
H 1.1165350963 2.3231579305 -0.3012347084
C 1.6334796854 0.2858129388 0.0287875184
H 2.4276998613 0.1754031643 -0.7175104491
C 0.9684134483 -1.0959264286 0.2368271769
H 1.6317309832 -1.6811495644 0.8954215982
O -0.2244738741 -1.0218613989 0.9547625446
O 0.7376733414 -1.785016101 -0.9641384065
O 2.2612975037 0.7026066737 1.2133785018
O 0.4252009706 1.1401533407 -1.8533754854
O -0.3170677486 1.8494705149 1.6113609897
O -2.3959761533 -1.8964629116 -0.6858569064
H -1.1737436837 -0.5443180322 -1.6541389016
H -2.7440077664 0.0467316287 -1.0371389709
H 1.5734476092 -2.0132733325 -1.3917419261
H 1.5787931016 1.0103748127 1.8345348109
H 0.0592890124 1.9408832899 -2.2549084469
H -1.0988744808 1.8769634776 2.181701325
H -1.6480282741 -2.4879986884 -0.5148102546
*
