! wb97x-v def2-tzvp def2/J RIJCOSX DEFGRID2 scfconv7 GCP(DFT/TZ) printgap
%output
    printlevel normal
end
%cpcm
    smd true
    smdsolvent "water"
end
* xyz 0 1
C -2.184375047501109 0.28022863378001583 0.12969405476943513
C -0.9244483322865114 -0.3941758966609382 -0.3880351291946692
S 0.5673665758266869 0.3797900448266764 0.3643919349561996
C 1.8522986366834164 -0.6244345735077385 -0.4613208839491724
H -3.064026165032249 -0.18775634519696333 -0.3237217598703945
H -2.273175780800054 0.18259754108539497 1.2161295087719188
H -2.20084073182308 1.3448966060202128 -0.12328544949027281
H -0.8498345009638324 -0.29661530035847977 -1.476435535527592
H -0.9222162418803906 -1.4604279197181735 -0.13738971244466927
H 2.825664065159945 -0.2749451102514564 -0.1078951260091843
H 1.8032332588424786 -0.4991785854710306 -1.5468802626151843
H 1.7411406298153742 -1.6822119363829273 -0.205771516558931
*
