! pbe def2-sv(p) def2/J RI DEFGRID1 loosescf d4 GCP(DFT/SV(P)) printgap
%output
    printlevel normal
end
* xyz 0 1
C -2.2452626911 -0.9756387574 -0.3696093372
C -1.1438427921 -0.2329986973 0.3964625686
H -1.5869458477 0.1872971228 1.3087908155
C -0.5579247733 0.909466108 -0.452511185
H -0.3710245266 0.5600242101 -1.4736669243
C 0.7780536607 1.3211360289 0.1810324494
H 0.6115531178 1.5007471875 1.2587310372
C 1.7725831539 0.157713682 0.0209682736
H 2.2225997549 0.2203147149 -0.975291606
C 1.0455955957 -1.204581298 0.1067338851
H 1.6796603224 -1.8984809519 0.6772153201
O -0.1391014442 -1.1381606014 0.8634653259
O 0.8302543262 -1.663969327 -1.1898302675
O 2.8372095686 0.2514306662 0.9307046567
O 1.2436602171 2.4965062988 -0.4290787878
O -1.4709944055 1.9613226949 -0.5796474935
O -2.9900986209 -1.8320152368 0.4602665755
H -1.7970847807 -1.5292497236 -1.2039304747
H -2.9458783641 -0.2395870228 -0.7687198381
H 0.6417918016 -2.6148532468 -1.1907618195
H 2.508133987 0.1712798149 1.8387041812
H 2.1485735922 2.6723685243 -0.1314423285
H -1.4896021724 2.4879860789 0.2329355672
H -2.3770648815 -2.4134491583 0.9337558255
*
