! wb97x-v def2-tzvp def2/J RIJCOSX DEFGRID2 scfconv7 GCP(DFT/TZ) printgap
%output
    printlevel normal
end
* xyz 0 1
C 1.8992334822286205 -1.0460311332029701 0.07690117019406846
C 1.0995476645946756 0.18710078821571563 0.4883828343173509
C -0.36661961076198873 0.2065782633040397 0.026770626619142316
C -1.0285095484130533 1.5051035793725778 0.46533383164325315
C -1.1490809696173134 -0.9980208735045074 0.5419115460846939
O -0.42421575317111204 0.22399637375772544 -1.4302533864186004
H 2.9407126763214952 -0.9439218146980669 0.3973430010441038
H 1.9085081886799502 -1.1826638778169418 -1.0103711727655635
H 1.5039483267511213 -1.9596519762393434 0.5309265341550575
H 1.5827488223066255 1.0875475393386278 0.08921355343690109
H 1.109135047418195 0.2803161675692203 1.5813358046442842
H -0.4825770344798893 2.3679920657004976 0.07035487637072782
H -2.0614595115196206 1.5499573248000875 0.10639670961909287
H -1.0390236769379562 1.573742589752013 1.5567385847017599
H -2.2006702485457206 -0.9175881696731701 0.24950343587410598
H -0.7509452884202658 -1.9326463191756582 0.13400008887914963
H -1.0960643544614916 -1.053206650565056 1.6341332213725617
H -0.09861638304727392 -0.6310329135262791 -1.7409225324498843
*
