! r2scan-3c def2/J RI DEFGRID2 scfconv6 printgap
%output
    printlevel normal
end
* xyz 0 1
C 1.8278627841 -1.4808923438 -0.0014087319
C 0.5423086545 -0.7108112319 0.0007192164
C -0.664660425 -1.4006993831 0.0010929174
C -1.8619641153 -0.7057582053 0.0002928435
C -1.8034053692 0.677221382 -0.0008192751
N -0.6660111679 1.3514663515 -0.0004663971
C 0.4867059161 0.6888165471 0.0003027032
C 1.7185129042 1.5421300584 0.0008348834
H 2.6925249975 -0.8280540918 0.0288943539
H 1.8607687994 -2.1460696443 0.8600054142
H 1.8862261642 -2.0963302406 -0.8980212406
H -0.6604943751 -2.4817581893 0.0022442187
H -2.8096117494 -1.2204323978 0.0003404201
H -2.7013483294 1.2813111199 -0.002482919
H 1.4212466298 2.5859799107 0.004272706
H 2.3223340387 1.3419911177 0.8835252309
H 2.3199298429 1.3464999287 -0.8843870328
*
