! wb97x-v def2-tzvp def2/J RIJCOSX DEFGRID2 scfconv7 GCP(DFT/TZ) printgap
%output
    printlevel normal
end
* xyz 0 1
C -3.9176039929129733 1.532579432170512 0.04194037889568178
C -3.1643483923926503 1.471624252023276 1.21149864396484
C -1.88072164702063 0.9341032259349652 1.1885180840833922
C -1.3415330441086315 0.4414264081133834 -0.004481068400918911
C -2.1031291934348517 0.5066215778470937 -1.176729844251727
C -3.38201207827965 1.0524431404527161 -1.1517608256259841
C 0.041610698322810905 -0.08659781094008694 -0.020895341400740557
C 1.0805855967754996 0.739925917153604 0.4267345081468876
C 2.3897845685967796 0.28517699048991973 0.41744540957885196
C 2.719553622760119 -0.9885684104165335 -0.0255895742585579
C 1.6982617638339461 -1.8243315723524698 -0.4592377450314807
C 0.38311614974333313 -1.3742922302843332 -0.4523208873172586
Cl -0.8669035445469471 -2.5082234073278604 -0.9490447686691851
Cl 3.6678138463198744 1.356865885261394 0.975556605723299
H -4.917064777380844 1.9555167469501855 0.05882120319686537
H -3.575484306737773 1.8422960539082642 2.145150241203222
H -1.293305168576197 0.8849243368904087 2.100469700329372
H -1.684964542715689 0.14710693059817878 -2.111369184419105
H -3.959484595425126 1.1082796864602102 -2.0691827467595494
H 0.8465359217499743 1.7437844453470877 0.763075290223541
H 3.746941400788299 -1.3328549239257468 -0.030658307678729776
H 1.9297951507789868 -2.8296116708875494 -0.791974138295295
*
