! wb97x-v def2-tzvp def2/J RIJCOSX DEFGRID2 scfconv7 GCP(DFT/TZ) printgap
%output
    printlevel normal
end
%cpcm
    smd true
    smdsolvent "water"
end
* xyz 0 1
C 0.6896590927134453 -1.4282516759196129 -0.10026030012485963
C 0.4495226380693265 0.01053491980774559 0.33568268004096363
C 1.618782211537863 0.9102459040332598 -0.01747528317010981
O -0.7095538665572485 0.5842167310869288 -0.31127505991402826
C -1.9422068187436223 0.002162508103633241 0.10943312166859546
H 0.8285790642876059 -1.4787876049481876 -1.1860669158164838
H 1.5950743163797718 -1.8108248151840383 0.3810377901283606
H -0.13702854846208704 -2.086602708581697 0.18022184301958008
H 0.27654311078214083 0.038242057137703865 1.4240245920125971
H 2.5275022507646807 0.5575290420848299 0.47842639575482554
H 1.4289879932119418 1.9398413517152948 0.300264565463919
H 1.792425102990354 0.9029083489795978 -1.0991803328706662
H -2.0633328269681237 -1.025899519741256 -0.2564501519434092
H -2.7446204488848434 0.6164580391254305 -0.3077147475985016
H -2.02595672299944 0.001982963970348954 1.206179355838898
*
