! pbe def2-sv(p) def2/J RI DEFGRID1 loosescf d4 GCP(DFT/SV(P)) printgap
%output
    printlevel normal
end
* xyz 0 1
C -2.5617110863 -0.8758701498 0.2714368278
C -1.1359728196 -0.429528517 0.626811596
H -1.0350148507 -0.3748490414 1.7230407099
C -0.8296329856 0.9589983902 0.0264504611
H -1.0559670707 0.9424861673 -1.0447472759
C 0.6561486479 1.2859446821 0.2232125709
H 0.847759253 1.4003336879 1.3079110149
C 1.5342900604 0.1380185237 -0.3041943236
H 1.3948253821 0.0388235775 -1.3856659105
C 1.1026843624 -1.17925098 0.3570483152
H 1.2683670255 -1.1014893047 1.4565589513
O -0.2631955058 -1.4254448545 0.1226817244
O 1.8292672628 -2.218203012 -0.1814674572
O 2.8929591317 0.4318895599 -0.1193590793
O 0.9631021817 2.4906050991 -0.4300163919
O -1.6738825477 1.9350714304 0.5731263639
O -2.7223197341 -1.0881731099 -1.1051526729
H -3.2572841374 -0.0814647666 0.5465837894
H -2.7992767157 -1.7878485429 0.8329776131
H 1.4243322905 -3.0657259994 0.0628350349
H 3.150833837 0.2842430242 0.8025384459
H 1.9216647601 2.5213325588 -0.5812384434
H -1.3687736471 2.1851244822 1.4577299494
H -2.0693757177 -1.7452412494 -1.3885424277
*
