! pbe def2-sv(p) def2/J RI DEFGRID1 loosescf d4 GCP(DFT/SV(P)) printgap
%output
    printlevel normal
end
* xyz 0 1
C -2.485739472 -0.7879206432 -0.0010595326
C -1.103469894 -0.5138560384 0.5906962203
H -1.090198368 -0.8377980877 1.6445735408
C -0.7395393565 0.9961802346 0.5624921151
H -1.6135604696 1.5651235876 0.2275869247
C 0.4090057225 1.2431885038 -0.4264691853
H 0.745151182 2.2821871641 -0.3174408961
C 1.6142470815 0.3434934322 -0.0636986053
H 2.2768390434 0.3068039352 -0.9367462186
C 1.1471247784 -1.1006840512 0.2338990185
H 1.2274397792 -1.2743777477 1.3311435638
O -0.188668481 -1.3055788203 -0.1496812652
O 1.9436730913 -1.9858499508 -0.4674230865
O 2.2526542355 0.9146161217 1.0540921418
O 0.0212321185 1.0906677774 -1.7625443513
O -0.430960003 1.4711719187 1.8505109363
O -2.5288044067 -0.2473074661 -1.3011927781
H -3.2387739595 -0.3237412513 0.6461374428
H -2.6362872444 -1.8730328114 -0.027135022
H 1.4943855886 -2.8430663249 -0.5342101734
H 3.1470803333 0.5576762665 1.1481197672
H -0.6205485991 0.3629554972 -1.8363125569
H 0.5220890627 1.3677145662 2.0115132705
H -3.3807833606 -0.4516238071 -1.7110605006
*
