! pbe def2-sv(p) def2/J RI DEFGRID1 loosescf d4 GCP(DFT/SV(P)) printgap
%output
    printlevel normal
end
* xyz 0 1
C -2.2718456809 -0.9362717427 0.7751263516
C -0.8155995124 -0.4368692137 0.7491819777
H -0.5400610694 -0.1151643555 1.7630554201
C -0.6143368157 0.7366413174 -0.213504779
H -0.7366347652 0.3569099408 -1.2407137437
C 0.820073762 1.2786236119 -0.0660419549
H 0.8328342205 2.0251581418 0.7361025716
C 1.7957927715 0.1545348564 0.3421407416
H 2.7599785481 0.3543812894 -0.1464213553
C 1.2663851762 -1.191600218 -0.1808863564
H 1.9375458727 -2.0124655603 0.1196451803
O 0.021402099 -1.5293021116 0.370984197
O 1.2184704204 -1.090990822 -1.5747021524
O 1.9237656401 0.162491557 1.7390875975
O 1.2373192965 1.9430038245 -1.2300989889
O -1.5867945252 1.7172411876 0.0564264254
O -2.9200499351 -0.8904880945 -0.4692673138
H -2.8218777325 -0.3505225387 1.5180116797
H -2.2557322559 -1.9854658833 1.0760726025
H 0.8905712778 -1.9216602763 -1.9527809244
H 2.6175202425 -0.4530849234 2.0173625996
H 1.3094024404 1.2970884813 -1.9503737904
H -1.3607953518 2.5221819964 -0.4326475298
H -3.1025331892 0.037122839 -0.6810389944
*
