! wb97x-v def2-tzvp def2/J RIJCOSX DEFGRID2 scfconv7 GCP(DFT/TZ) printgap
%output
    printlevel normal
end
%cpcm
    smd true
    smdsolvent "water"
end
* xyz 0 1
C -3.9971474881278435 -0.49647681745166056 -0.0014172821357227776
C -2.5476288942316305 -0.09555300950307449 0.0007636557018072536
C -2.1786248341742187 1.2721319726714062 0.00011553630044517918
C -0.857703430902983 1.6581851073032057 -0.0004761669510559354
C 0.1788687188068741 0.6951532713959274 -0.00039118365078479565
C 1.5501792519686017 1.0548082315910507 -0.0013918690764053248
C 2.54605497393798 0.10249971493742392 -0.0011765442417965963
C 2.176175845760954 -1.2694967312596785 -0.0001978944764175276
C 0.8588810233599751 -1.6547564156348347 0.0007778531811713598
C -0.18063341586162435 -0.6892932356040546 0.0006407549192699256
C -1.547718971609254 -1.0487690659452698 0.0013244589557884349
C 3.999756937530807 0.47709189433533594 0.0007324963390526458
H -4.650304828926298 0.3791445439035548 0.024171372118609865
H -4.243156669461762 -1.078292977058576 -0.8963757528132358
H -4.233643068220423 -1.1244928714097635 0.8641284774424747
H -2.960841196499024 2.0263671312347453 0.0003343548975685156
H -0.5939643151241064 2.712469421903174 -0.0006593445601584904
H 1.8092599273788468 2.11113299565528 -0.0025005592075651563
H 2.9601309030086775 -2.022500894824816 -0.00045338700028948727
H 0.5935671739545952 -2.70866343035095 0.0011541646340321357
H -1.807110140779614 -2.1054916244641886 0.002131494210169816
H 4.1306838710096025 1.5615365174398828 -0.028394938532047866
H 4.5008840981358595 0.09395531047373047 0.8970481368379908
H 4.5170363362334385 0.04327191782996539 -0.8623734950355577
*
