! pbe def2-sv(p) def2/J RI DEFGRID1 loosescf d4 GCP(DFT/SV(P)) printgap
%output
    printlevel normal
end
* xyz 0 1
C -1.1894734027 0.9204062881 1.0267411315
C -0.5102499232 0.2257462416 0.0357463345
C -1.223751425 -0.5794595113 -0.8511008182
C -2.6093570782 -0.6798721206 -0.7501543518
C -3.2873099385 0.0246334045 0.242814923
C -2.5674026931 0.8224079163 1.1308517815
Cl -3.3992215559 1.6877091114 2.3611437816
Cl -4.9973766033 -0.0984821394 0.3662295145
Cl -3.4857261118 -1.6731420376 -1.8458866954
Cl -0.3930086614 -1.4742501275 -2.0617393117
C 0.9611578663 0.3368216545 -0.082306827
C 1.548243353 1.0457801193 -1.1301640933
C 2.924457476 1.1480003826 -1.251589867
C 3.736328875 0.5297456125 -0.3137218633
C 3.1801379251 -0.186040066 0.7459656266
C 1.7938773535 -0.274123827 0.8530688701
Cl 1.0947375571 -1.1722630596 2.1423829781
Cl 4.1892740557 -0.9568750855 1.9066416592
Cl 5.4442553175 0.6446685313 -0.4574594248
Cl 0.53583407 1.8208494798 -2.2848615679
H -0.6430307344 1.5438406273 1.7152059106
H 3.3625284867 1.7012507075 -2.0655311058
*
