! pbe def2-sv(p) def2/J RI DEFGRID1 loosescf d4 GCP(DFT/SV(P)) printgap
%output
    printlevel normal
end
* xyz 0 1
C -2.4033066846 -0.8528071389 0.3896521926
C -0.9448534828 -0.4315063236 0.5978675216
H -0.6790325795 -0.5819138089 1.6562701683
C -0.723212529 1.0550533931 0.2400968347
H -1.491708421 1.3678681382 -0.4752885477
C 0.6485991684 1.2396746219 -0.4399242492
H 0.9604735913 2.2814578228 -0.2673294865
C 1.6787428953 0.3122741103 0.2307115532
H 2.6434556308 0.4042327194 -0.2844383633
C 1.2306106717 -1.1602556898 0.0711942147
H 1.4379060858 -1.6908222564 1.0291442812
O -0.143144541 -1.282712765 -0.205074421
O 1.9452532714 -1.7239819625 -0.9678937114
O 1.7740591157 0.6989201403 1.5788828367
O 0.5008811195 0.9772571004 -1.8074290781
O -0.86618637 1.8801540751 1.3639053685
O -2.8508982358 -0.6228976308 -0.9200859233
H -3.0401827034 -0.2557608292 1.0445759675
H -2.5020009164 -1.9149716342 0.6494045183
H 1.4954645984 -2.5279152228 -1.2708652359
H 2.58546572 0.3503755966 1.9746857163
H 1.3412563796 1.1169254112 -2.2669919322
H -0.116158005 1.7229128316 1.960963459
H -2.2306598165 -1.0451337971 -1.5322697923
*
