! pbe def2-sv(p) def2/J RI DEFGRID1 loosescf d4 GCP(DFT/SV(P)) printgap
%output
    printlevel normal
end
* xyz 0 1
C -2.4194576671 -0.7087720671 -0.0041031763
C -0.9992440891 -0.2609760835 0.3565984753
H -0.9877201092 0.0932961669 1.3978057494
C -0.5079366963 0.8697434271 -0.5517966313
H -0.3841347296 0.4795805048 -1.5697279037
C 0.8674699898 1.3404002972 -0.0340133843
H 0.6904428751 1.9708256204 0.8487480434
C 1.7181910606 0.1495381407 0.4440680415
H 2.7269122869 0.2902326004 0.0326593901
C 1.1797762682 -1.184064044 -0.0990361424
H 1.7290811288 -2.0158246854 0.3720748662
O -0.1600126 -1.4111412014 0.2534878077
O 1.3685737271 -1.1977282186 -1.4794519283
O 1.7199616621 0.160797828 1.8482685097
O 1.5983937512 2.0348655797 -1.0157056501
O -1.4542204456 1.9125625623 -0.5145767635
O -2.9120382887 -1.6741502385 0.8881443404
H -2.4202235835 -1.0974957245 -1.0311592061
H -3.0889489998 0.1498080283 0.0595500461
H 1.131662907 -2.0673082492 -1.8385944028
H 2.363056824 -0.4775050136 2.189784179
H 1.2513610723 2.9332111992 -1.107942546
H -1.3745415078 2.4564518321 -1.3102957266
H -2.2662186078 -2.3939174525 0.9406196508
*
