  5
        -14.87198118
 C          0.0002189625        0.0004739288        0.5226544332
 Br         0.3852240127       -1.8225247471       -0.0329712852
 Br         1.3864403176        1.2446958042       -0.0329958880
 Br        -1.7716975477        0.5777601073       -0.0329799331
 H          0.0000240961       -0.0001905161        1.6159268241
