! r2scan-3c def2/J RI DEFGRID2 scfconv6 printgap
%output
    printlevel normal
end
%cpcm
    smd true
    smdsolvent "water"
end
* xyz 0 1
C -2.4000852764 -1.1430886241 -0.2999439016
C -1.0585670488 -0.6236106485 0.2440878458
H -1.0709652378 -0.6192424496 1.3465854353
C -0.7717201347 0.8073724715 -0.2399217302
H -0.818471348 0.8227452845 -1.341133264
C 0.6400171001 1.2528198526 0.1778664458
H 0.6631021475 1.3823803544 1.2708036385
C 1.6813756444 0.1979206057 -0.2020214155
H 1.7923663797 0.2076159838 -1.2969541739
C 1.2238287507 -1.2047065127 0.2579286869
H 1.2440663948 -1.2254460914 1.3615263643
O -0.062887548 -1.513222058 -0.2184498839
O 2.0938686824 -2.1886341424 -0.1725288812
O 2.8959330732 0.5257278272 0.4216086129
O 0.9827149013 2.4566948608 -0.4600107694
O -1.6729274838 1.7375827266 0.3059278408
O -3.4949207296 -0.3960371452 0.1672538749
H -2.4889603061 -2.2037617461 -0.0476616981
H -2.3980952285 -1.0478568412 -1.3882182693
H 1.8838117855 -2.4204869329 -1.0913408766
H 3.5416272436 -0.1745470657 0.2378146597
H 0.3173418129 3.1220428581 -0.2274068312
H -2.579906817 1.4235711 0.1382208054
H -3.696097424 -0.6422097597 1.0813642139
*
