! pbe def2-sv(p) def2/J RI DEFGRID1 loosescf d4 GCP(DFT/SV(P)) printgap
%output
    printlevel normal
end
* xyz 0 1
C -2.0726434513 -1.1771089813 -0.270012719
C -1.2704520197 -0.3482869997 0.7533686695
H -1.9043379189 -0.2326756315 1.638536581
C -0.9313300998 1.061758075 0.2080020108
H -1.2538038782 1.1365952585 -0.8364702873
C 0.584827652 1.2878515876 0.2462892275
H 0.9230631465 1.3499813826 1.2951068722
C 1.2730533508 0.0850246184 -0.4112484689
H 0.8532129328 -0.0477943902 -1.4166775569
C 0.9873521018 -1.1723374938 0.4306625809
H 1.8250919776 -1.3220607483 1.127747547
O -0.1293707934 -1.0336478833 1.2687021762
O 0.8656011131 -2.2643267404 -0.436175405
O 2.6501335292 0.3613242722 -0.474923135
O 0.887317032 2.4785823358 -0.4284730184
O -1.6471202004 2.0609312638 0.8829895144
O -1.4907935279 -1.2535158862 -1.5468271544
H -3.0374451818 -0.6852796474 -0.409133537
H -2.238157963 -2.1790859073 0.1441300316
H 0.8369868559 -3.092559225 0.0679190757
H 3.0883523287 -0.2694264483 -1.0631788013
H 1.8470804133 2.5071523851 -0.5701578336
H -1.2645983259 2.2070132313 1.7606461873
H -0.6731249811 -1.782083263 -1.4808948632
*
