  16
        -25.52382417
 C         -2.4880731122       -1.1826670201       -0.0132425448
 C         -1.7169127179        0.1011101562        0.0016108807
 O         -2.2672038965        1.1887708201        0.0119970256
 C         -0.2288736604        0.0058471446        0.0003902812
 C          0.5155245607        1.1861198049       -0.0064155251
 C          1.8980683226        1.1057203271       -0.0073040734
 N          2.5573077486       -0.0422367835       -0.0006866235
 C          1.8527345613       -1.1630408759        0.0067597920
 C          0.4668465809       -1.2024231104        0.0069731746
 H         -3.5525404411       -0.9646048442       -0.0216733792
 H         -2.2433985346       -1.7686199443        0.8693790980
 H         -2.2262302631       -1.7609455491       -0.8959135697
 H          0.0036738038        2.1358943887       -0.0105015096
 H          2.5099329754        1.9969690370       -0.0118481576
 H          2.4340544924       -2.0745439186        0.0095906526
 H         -0.0412756801       -2.1514084932        0.0138696334
  16
        -25.52175428
 C         -2.4847834665       -1.0723735821       -0.5076961547
 C         -1.7149424242        0.0878149618        0.0445743971
 O         -2.2637174853        1.0889656427        0.4705751330
 C         -0.2271078659        0.0021313672        0.0174247336
 C          0.5079316858        1.1589990535       -0.2377076961
 C          1.8905682803        1.0775463123       -0.2591210910
 N          2.5560006036       -0.0430223853       -0.0271304988
 C          1.8583312777       -1.1357850671        0.2392024394
 C          0.4727843762       -1.1757913858        0.2683554969
 H         -2.9387572142       -0.7487168117       -1.4437183733
 H         -3.2977564716       -1.3244557844        0.1694264868
 H         -1.8588482013       -1.9353727703       -0.6988783988
 H         -0.0045407067        2.0906612672       -0.4190318034
 H          2.4977509399        1.9480949525       -0.4644508072
 H          2.4437524749       -2.0233026187        0.4347801134
 H         -0.0358780481       -2.0938028552        0.5124063910
