! pbe def2-sv(p) def2/J RI DEFGRID1 loosescf d4 GCP(DFT/SV(P)) printgap
%output
    printlevel normal
end
* xyz 0 1
C -2.0016454882 -0.6000505899 -0.7375889978
C -1.1842151653 -0.1076690035 0.4711067675
H -1.8538370935 -0.0749077705 1.3392031359
C -0.6158662225 1.3106108666 0.2637049471
H -1.3517798372 1.8814219161 -0.3140390409
C 0.7233752911 1.2960635996 -0.5031087148
H 1.1786030308 2.2891311472 -0.3862650526
C 1.687071756 0.2753711539 0.1252718186
H 2.5754158193 0.1996030958 -0.5185558141
C 1.0191680831 -1.1107770394 0.1702480185
H 1.6178477619 -1.8023637582 0.7789564449
O -0.206952865 -1.0733426997 0.8612640803
O 0.936040795 -1.6852434081 -1.0942144827
O 2.0207014632 0.7403014359 1.4081695729
O 0.5645615827 0.9611172942 -1.8619156766
O -0.4839234065 2.0040488604 1.4785127342
O -2.5522179707 -1.8718934051 -0.4975541059
H -1.3818445487 -0.6202056586 -1.6413743807
H -2.8470600733 0.071959611 -0.8972086306
H 0.7468396403 -0.9962079693 -1.7563272766
H 2.6853549597 0.164515105 1.8122696873
H 0.2189672117 1.7189748151 -2.3537933534
H 0.268118661 1.6328813994 1.9705551107
H -1.8385210337 -2.4553279116 -0.1976329942
*
