! r2scan-3c def2/J RI DEFGRID2 scfconv6 printgap
%output
    printlevel normal
end
* xyz 0 1
C -2.5054413403 0.0396579246 0.0205105853
C -1.0861166282 -0.5122996067 -0.039530683
C -0.0613206148 0.6057334678 0.0549100122
S 1.6347232672 -0.1047631077 -0.0199601511
H -2.6684929557 0.5704883328 0.9555141598
H -2.6813450972 0.7277973816 -0.8029522161
H -3.2252066659 -0.7714012276 -0.0467997725
H -0.937542775 -1.0561798309 -0.9755040622
H -0.9252004894 -1.2157416848 0.780971861
H -0.1631583617 1.300057135 -0.7783210453
H -0.1518523423 1.1392694344 1.0003746145
H 2.2768102932 1.0525160004 0.0740240004
*
