! r2scan-3c def2/J RI DEFGRID2 scfconv6 printgap
%output
    printlevel normal
end
%cpcm
    smd true
    smdsolvent "water"
end
* xyz 0 1
C 2.0224749913 0.0384398552 -0.000423977
C 0.7413663117 -0.7863158142 0.0005415807
C -0.4919634766 0.0829363451 8.4495e-05
O -0.4759373959 1.2916337412 0.0001732818
O -1.6608850123 -0.563025953 -0.0003224154
H 2.0588188586 0.6794300527 0.8766503503
H 2.8904947464 -0.6138708179 0.0005620507
H 2.0589737321 0.6770595662 -0.8792439406
H 0.7077055756 -1.4261157171 -0.8842315353
H 0.7080378654 -1.4243439175 0.8866096927
H -1.5774354991 -1.5341162354 -0.0003875972
*
