! r2scan-3c def2/J RI DEFGRID2 scfconv6 printgap
%output
    printlevel normal
end
%cpcm
    smd true
    smdsolvent "water"
end
* xyz 0 1
C -1.0393413597 0.7707783377 -0.0899285707
C -1.0369778235 -0.7698785592 -0.1090474241
C 0.4132793185 -1.1515262105 0.2101441574
N 1.1687003617 -0.0034936837 -0.2614049042
C 0.4186624412 1.1534408473 0.1980682645
H -1.7069185546 1.169796594 0.6711601324
H -1.3478220198 1.1629930173 -1.0566209894
H -1.7266462252 -1.1920150869 0.6189472694
H -1.3103684261 -1.1372988319 -1.0959801058
H 0.5289376913 -1.3136949373 1.2961473532
H 0.7388414055 -2.0525240831 -0.3109348204
H 2.1217111399 -0.0032077645 0.0837970323
H 0.5518731418 1.3375169249 1.2783525661
H 0.7378579122 2.0434467471 -0.3455778153
*
