! pbe def2-sv(p) def2/J RI DEFGRID1 loosescf d4 GCP(DFT/SV(P)) printgap
%output
    printlevel normal
end
* xyz 0 1
C -3.3334405658 0.4722731882 -0.2238225994
C -1.8728037469 0.4715878889 0.0781544418
C -1.1115585938 1.5550714466 0.1744377152
C 0.3452168042 1.4038403055 0.4702602947
C 0.9824138563 0.3499018075 -0.4653979922
H 1.0782692067 0.8162824255 -1.4497382574
C 0.0814470251 -0.8925499087 -0.6138431586
C -1.1752591191 -0.8513504836 0.2781716876
H -0.8622910136 -0.9181736128 1.3360537962
O -2.0503510382 -1.920340737 -0.0181777972
C 2.3706589718 0.0133321431 0.0340093943
C 2.5764646536 -0.7291847235 1.1107645838
C 3.4980112717 0.6055336079 -0.7537816997
H -3.8794327092 -0.0140427727 0.5828239171
H -3.5235264877 -0.0993298742 -1.1305532527
H -3.6975916072 1.4878947087 -0.3494141316
H -1.5180488992 2.5454104188 0.0412081801
H 0.8694341511 2.3527924459 0.3587219677
H 0.4755194435 1.0703762371 1.5046090766
H -0.2699668712 -0.9719268761 -1.6445334561
H 0.6523105716 -1.7947114213 -0.3868206033
H -1.5789749476 -2.7552205875 0.0975403437
H 3.5680700634 -0.9486479003 1.4678389262
H 1.7658034513 -1.1484702563 1.6825109825
H 3.4802553723 0.2250486632 -1.7742260334
H 3.3915466271 1.6883166928 -0.8013801812
H 4.4583935263 0.3658337124 -0.306123208
*
