! wb97x-v def2-tzvp def2/J RIJCOSX DEFGRID2 scfconv7 GCP(DFT/TZ) printgap
%output
    printlevel normal
end
%cpcm
    smd true
    smdsolvent "water"
end
* xyz 0 1
C -2.6853304462273337 -0.5515331641619299 -0.7347922151330851
C -1.8678480287802375 -0.5306166176577407 0.5624670261993953
C -0.39334855732810703 -0.3390987383527817 0.3041547930671697
C 0.4402339722230164 -1.4646578361737252 0.2757433251440163
C 1.8013218031282834 -1.3608741557755908 0.010411421227493141
C 2.3559860122715524 -0.1064221405668808 -0.23315741824976038
C 1.5392335617139152 1.0183531318195589 -0.21193535312467038
C 0.16609252321418172 0.9272628989274162 0.049410665964624054
C -0.6435178610409746 2.1978385662805917 0.060628474334344394
H -2.5584528435928613 0.3780611161861579 -1.2992111066550687
H -3.75179271892238 -0.6773552928390233 -0.5214541765468971
H -2.3659043110569167 -1.3792132045635488 -1.3767943976291723
H -2.0109800449746422 -1.479465545463467 1.0900971452381667
H -2.246046304484639 0.25660585396616065 1.2230740366732413
H 0.004167114672107408 -2.441523683320487 0.4702775575376637
H 2.423919247487771 -2.250374659690401 -0.0018358038385586258
H 3.4173510796062847 -0.0043786212119628415 -0.4385555136783733
H 1.9708922867569607 1.9983761920736092 -0.4019243769905958
H -0.4775701821631931 2.76545619531275 -0.8610297084183329
H -1.7149295290041604 2.021855958208662 0.15642459630976124
H -0.3351889221323069 2.842631694859552 0.8919555215493767
*
