! wb97x-v def2-tzvp def2/J RIJCOSX DEFGRID2 scfconv7 GCP(DFT/TZ) printgap
%output
    printlevel normal
end
* xyz 0 1
C -2.7784302500083533 -0.41969525394959106 9.258634855757808e-05
O -1.7961772410735495 0.6283421136220506 -1.7628670806426565e-05
C -0.47644041794486075 0.2519706709836224 -1.1759358306281677e-05
C -0.0384223144431573 -1.0742660797039099 -2.816149244224841e-05
C 1.3324791372943492 -1.3368626530006387 -1.2987091123616732e-05
C 2.2619939039476717 -0.3028457778335465 1.579991403398011e-05
C 1.810279028926302 1.0182725669105073 2.3363263943500617e-05
C 0.4513275539278103 1.2998264013461174 8.636116498651963e-06
H -2.688776713843347 -1.0424132794599026 0.897273855858363
H -2.6889304461103705 -1.0424692044520356 -0.8970661543500691
H -3.7460353631898533 0.08313412788803926 0.00015902432647862887
H -0.7401348760661524 -1.899049681397092 -5.3514507942519734e-05
H 1.6680633970419092 -2.3695757811851763 -2.3588760317953692e-05
H 3.3249163455544224 -0.5196113981841401 3.329794843406489e-05
H 2.522599094872244 1.8376865871925623 4.6280846161668705e-05
H 0.09136551478983776 2.3237442633786336 1.7364026314686346e-05
*
