! pbe def2-sv(p) def2/J RI DEFGRID1 loosescf d4 GCP(DFT/SV(P)) printgap
%output
    printlevel normal
end
* xyz 0 1
C -2.2663188968 -0.9453028706 0.7725326594
C -0.8093349439 -0.4431835124 0.7600107632
H -0.5319781106 -0.1483282963 1.7826658408
C -0.6166152702 0.7522832908 -0.1885117179
H -0.7709738233 0.3984408278 -1.214667373
C 0.8243909702 1.2851557258 -0.0687726589
H 0.8672573273 2.040385809 0.7249289679
C 1.794675703 0.152619064 0.3363140743
H 2.7608367896 0.3554837094 -0.1458048746
C 1.263788243 -1.1878468694 -0.198221179
H 1.9388324648 -2.0114337814 0.086225362
O 0.0263938401 -1.5318330386 0.3655890846
O 1.1992730471 -1.071807581 -1.5893654084
O 1.9132330289 0.1503107254 1.7348787234
O 1.2463230731 1.9389909487 -1.2345441442
O -1.5911157869 1.7433111454 0.0144494383
O -2.9029411329 -0.9057146809 -0.4781262612
H -2.8310946284 -0.3648515778 1.5096703859
H -2.2521067065 -1.9940488017 1.0752309781
H 0.8684955466 -1.8985096456 -1.9732985343
H 2.6128199704 -0.4585458571 2.0126490737
H 1.2498995236 1.3042097418 -1.9676920024
H -1.407326924 2.2274728979 0.8317688018
H -3.0482158677 0.0215225114 -0.720074637
*
