! pbe def2-sv(p) def2/J RI DEFGRID1 loosescf d4 GCP(DFT/SV(P)) printgap
%output
    printlevel normal
end
* xyz 0 1
C -2.1480127605 -0.9730638119 -0.1586557653
C -1.1055540111 -0.3760124613 0.8021873218
H -1.5776155604 -0.3632986288 1.7925945316
C -0.7336376924 1.0892114815 0.4799552182
H -1.5854823153 1.5519993126 -0.0286586918
C 0.4980414665 1.2537963963 -0.4327557695
H 0.863801972 2.2790152906 -0.2603303914
C 1.6167766452 0.2888676775 -0.0009481691
H 2.4159286581 0.2991042634 -0.7577271755
C 1.0788475343 -1.1553618136 0.0880589649
H 1.8459538477 -1.8058439536 0.5321270456
O 0.0137493418 -1.2369446381 1.0008708306
O 0.8077485369 -1.6900539151 -1.161827611
O 2.0896284466 0.7432785142 1.2446430977
O 0.1204063003 1.0787695554 -1.7701416045
O -0.5498987313 1.8198694374 1.6689942536
O -1.7660677407 -0.8177354436 -1.5070077194
H -3.0983832959 -0.4610541341 0.0292429688
H -2.2509711033 -2.0364616222 0.0935547059
H 0.0120116543 -1.2505908128 -1.5383005408
H 2.7986090086 0.1671057294 1.5641422025
H 0.8388020229 1.3549123572 -2.3564928614
H 0.2936259871 1.5490884388 2.0685186855
H -2.4586862469 -1.1705218182 -2.0826852668
*
