! wb97x-v def2-tzvp def2/J RIJCOSX DEFGRID2 scfconv7 GCP(DFT/TZ) printgap
%output
    printlevel normal
end
%cpcm
    smd true
    smdsolvent "water"
end
* xyz 0 1
C -1.2056409436355988 -0.22997353284114208 0.08586933382225247
N -0.00515998620670369 0.6169861940750416 0.09939878511098132
C 1.1905128661248041 -0.20783537240598668 -0.11844766946803009
H -1.3553133926140855 -0.6406782870368474 -0.9186476862941169
H -2.0889553179838414 0.3646855595461732 0.3383981204663622
H -1.1492090364990057 -1.078745780277335 0.7886802980081994
H 0.07137004635899014 1.0003187456402054 1.0376780306396367
H 2.0918460096552582 0.4056935575128391 -0.03257660926225249
H 1.1676658804166289 -0.6295968400875619 -1.1289561656014107
H 1.2766310207367444 -1.0482699917684435 0.5910424092685039
*
