! wb97x-v def2-tzvp def2/J RIJCOSX DEFGRID2 scfconv7 GCP(DFT/TZ) printgap
%output
    printlevel normal
end
* xyz 0 1
C -1.3882766606839536 -0.880864061262801 0.2232215872682889
S 0.005965079319739531 0.1408339643217994 -0.4269081627847895
O 0.013865709350116481 1.4427470564511244 0.4041756560741239
C 1.3777200062849377 -0.8698599378854825 0.22762838243321387
H -2.0513722223649333 -1.1399778375063985 -0.60503049670033
H -1.9161010928798348 -0.24891427096661958 0.9417518061438027
H -1.014250634941361 -1.7822832026032294 0.7117678699307036
H 1.3489607876631529 -1.8533292838316207 -0.2509373032593672
H 1.2663994660793647 -0.9596638323108693 1.3118677796725438
H 2.308949055383387 -0.358066242290722 -0.02658980305368136
*
