! wb97x-v def2-tzvp def2/J RIJCOSX DEFGRID2 scfconv7 GCP(DFT/TZ) printgap
%output
    printlevel normal
end
* xyz 0 1
C -0.9163172896959999 1.382263056835112 -0.4488819741612236
C -0.4855240119107754 -0.00016592612105843346 0.00018923055763086567
C -0.9158483873312271 -1.0799342872425048 -0.9731601103420581
C -0.9161271237623977 -0.3025042387717506 1.4219294176486557
Cl 1.4124112420493464 -0.00022422127236947903 0.0004962667338277895
H -0.5579842995230799 1.6026290277666193 -1.457576638580276
H -2.0120481201458427 1.413489119841043 -0.4587089394766716
H -0.5577178525515866 2.1537565773357183 0.2370657316719398
H -0.5560294055360557 -2.0638388172819524 -0.6619166929791458
H -2.011543510704049 -1.1053712948250636 -0.9946313077364265
H -0.5580453450451139 -0.8696394459756143 -1.984215593524739
H -2.011869248012391 -0.30822220090773056 1.4546296674717347
H -0.5568181007505482 0.4599741225420117 2.117619925630649
H -0.5585198492655669 -1.2827187754845297 1.7471640506132862
*
