! wb97x-v def2-tzvp def2/J RIJCOSX DEFGRID2 scfconv7 GCP(DFT/TZ) printgap
%output
    printlevel normal
end
%cpcm
    smd true
    smdsolvent "water"
end
* xyz 0 1
C -5.0754923264330305 -0.7249926507553882 0.05094322799067868
C -4.310850899932895 -1.3752029091082463 -0.9141721186733904
C -2.9278896158253724 -1.2219102394629462 -0.9289472925509361
C -2.298340055681897 -0.40627865069590663 0.01704317924537724
C -3.070908229030358 0.24217241439187737 0.9866689223773762
C -4.451591748440481 0.07958406303359128 1.0027131492892918
C -0.8218992423796656 -0.29373069740471086 0.012263078965570008
C -0.06715202144660297 -1.4653888230760654 0.08083139217233032
C 1.31717718380678 -1.4291523559667958 0.08861217823822531
C 1.9989695970064367 -0.2118977687559234 0.029908752594975597
C 1.2577379504275266 0.9738845241986842 -0.054716969307004225
C -0.14135363769879317 0.9281831408929649 -0.06827924170787439
Cl -1.033619090851644 2.4122517036278754 -0.2558191488120369
Cl 2.085181246209567 2.492561334447935 -0.15862170576814064
Cl 3.7285247362522846 -0.16714929278784477 0.05595303042016373
Cl 2.1938891839133596 -2.9303419501041863 0.18811532914759038
H -6.153776883837332 -0.8471690856397152 0.06505287985026241
H -4.789731580573675 -2.0036792005958954 -1.6582840410525312
H -2.330465770903102 -1.7256428370984034 -1.6828074681603946
H -2.589521269010315 0.8576182430684489 1.7394347699897559
H -5.04155073148697 0.5794597088339809 1.764413973485111
H -0.578260527884434 -2.418882520211926 0.14587900774642276
*
