! pbe def2-sv(p) def2/J RI DEFGRID1 loosescf d4 GCP(DFT/SV(P)) printgap
%output
    printlevel normal
end
* xyz 0 1
C -3.3287188254 0.4509157828 -0.2530626127
C -1.8530498748 0.5199269119 -0.0276847247
C -1.0878849067 1.5582085622 -0.343288493
C 0.3827209876 1.490481296 -0.0909020211
C 0.9633509971 0.1699691938 -0.6514906296
H 0.9939621414 0.2804184815 -1.7394419229
C 0.0596192022 -1.0317602499 -0.3194305731
C -1.1408558413 -0.671409006 0.5726391981
H -0.7639543711 -0.3904302433 1.5720957587
O -1.9341900334 -1.8364142578 0.6853780798
C 2.3835873723 0.002042521 -0.1676601362
C 3.4077517597 0.2533289922 -0.9692888227
C 2.5935799629 -0.4314558196 1.2533817599
H -3.8639969982 0.4528179023 0.6964576146
H -3.5810807649 -0.4658247216 -0.7838651299
H -3.6606858448 1.304854499 -0.8367662196
H -1.4990382073 2.4514336529 -0.7881312554
H 0.9017942708 2.332298598 -0.5486371795
H 0.5675067751 1.5320797575 0.986696175
H -0.3543561736 -1.4522203357 -1.2371812716
H 0.6196005186 -1.8266719908 0.1705144974
H -2.6648082708 -1.6646544701 1.2935820918
H 4.4275878695 0.1685945223 -0.6336567768
H 3.2700216287 0.5506711694 -1.9951800433
H 2.5407141191 -1.5171127091 1.3283714935
H 3.5735389695 -0.1206655853 1.6051779349
H 1.8331972223 -0.0152538383 1.9088443482
*
