! r2scan-3c def2/J RI DEFGRID2 scfconv6 printgap
%output
    printlevel normal
end
%cpcm
    smd true
    smdsolvent "water"
end
* xyz 0 1
C 1.5788967303 1.6336113918 0.8425046403
C 0.2789277698 0.8825945739 1.1965041222
H -0.080359578 1.2683704693 2.1523853641
C 0.3129201021 -0.674743105 1.2799203617
H -0.0695846821 -0.9895147725 2.2533857393
C 1.6499944679 -1.4004381937 1.0926311603
O 2.43547922 -0.8733874226 0.0519776721
S 3.6556629277 0.1473348124 0.5740262907
O 4.4504357516 -0.567198988 1.5410653208
O 2.6959425328 1.1112357085 1.5251916289
C -0.736488259 -1.0898023554 0.2115256378
C -0.2032114041 -0.6922235058 -1.1494293941
C -0.2603300584 0.6453393233 -1.2151160517
C -0.8084156355 1.1359794624 0.1130674188
C -1.8139487276 0.0010528642 0.4045776449
Cl -3.1266769484 -0.0924503174 -0.7846748841
Cl -2.5326095796 0.0495720143 2.007984364
Cl -1.4606396183 2.7621996783 0.0990220077
Cl 0.2112441998 1.6691661542 -2.478046434
Cl 0.3782545497 -1.794897706 -2.2863976042
Cl -1.2910779309 -2.7487170195 0.3421320697
H 1.4690372774 2.6791235247 1.1386038874
H 1.7649683696 1.5860112582 -0.2330088399
H 2.2238779446 -1.3542395929 2.0251993016
H 1.4498564308 -2.4513011601 0.8643250929
*
