! wb97x-v def2-tzvp def2/J RIJCOSX DEFGRID2 scfconv7 GCP(DFT/TZ) printgap
%output
    printlevel normal
end
%cpcm
    smd true
    smdsolvent "water"
end
* xyz 0 1
C -2.0151206232167644 -0.7363599039334622 1.2552479958558873
C -1.5204411342103126 0.005707497697872461 8.362716731860449e-05
C -2.0156762678165476 -0.7368200721169651 -1.2545776652700662
C -2.1290426986318796 1.4113314541826494 -5.2610248924781916e-05
C 0.010254581551263235 0.03129590586477808 -0.0001436637187593661
C 0.7485914552593719 1.2189987662586652 -0.00014959790992015304
C 2.1442820682617736 1.2029798839959902 -0.00011366027719385163
C 2.835152765406049 -0.0032942699950670312 -7.931085132438928e-05
C 2.114778473730597 -1.1968602170547142 -0.00012424540148806853
C 0.7243828091056936 -1.1768092028430859 -0.00016016533203544076
H -3.1105441267760456 -0.7565760753192466 1.269578251326732
H -1.658377271597517 -1.770360909156473 1.2783062772813576
H -1.669414494649755 -0.2343810312331549 2.165459949088978
H -1.670829366094178 -0.23488871472501938 -2.1651396581351956
H -1.6585530679390899 -1.7706861659941278 -1.2776846801290371
H -3.1111000641412794 -0.7574791414497086 -1.2681214005617178
H -1.8373811424094035 1.9814086464350624 -0.8884345247436687
H -3.2206717881595703 1.3292950944601516 7.781671626854041e-05
H -1.8371952276809163 1.9816730519666783 0.8880973549276904
H 0.24184041283011243 2.177142739174431 -0.00015805530155203726
H 2.6892309535768018 2.142442425874966 -9.057916525259994e-05
H 3.9205709103771382 -0.016465470528747462 -1.1033988263748183e-05
H 2.6381929017254344 -2.148457714331041 -0.00010943175519145615
H 0.18776225876470706 -2.1207452019367268 -0.00016447401554270155
*
