! pbe def2-sv(p) def2/J RI DEFGRID1 loosescf d4 GCP(DFT/SV(P)) printgap
%output
    printlevel normal
end
* xyz 0 1
C -2.6122213128 0.5138506105 -0.0005742775
O -1.2382907237 0.9089572966 -0.0021488552
C -0.3234122324 -0.0641606551 -9.29849e-05
O -0.6143099722 -1.2445757538 0.0028991328
C 1.0451029647 0.4834386513 -0.0017953414
C 2.1143433397 -0.2846266419 0.74252627
C 2.1145122825 -0.2890620793 -0.7410191001
H -3.1815953233 1.4376858593 -0.0042160175
H -2.8288953208 -0.077921251 0.8896901458
H -2.8289613513 -0.0850038432 -0.8860702848
H 1.0778435008 1.5631078989 -0.0050186355
H 2.8569290769 0.2932098416 1.2680766806
H 1.7952322758 -1.182530706 1.2491962171
H 2.8572201784 0.2856714071 -1.2698854046
H 1.7954765695 -1.1899534035 -1.2422970699
*
