! r2scan-3c def2/J RI DEFGRID2 scfconv6 printgap
%output
    printlevel normal
end
%cpcm
    smd true
    smdsolvent "water"
end
* xyz 0 1
C 2.0900840524 0.0837283314 -0.1274562229
C 0.7591480873 0.6689804881 0.3346528299
C -0.4558879207 0.0035171352 -0.3263349053
H -0.3122828411 0.0011249705 -1.4201222525
C -1.7400614343 0.7597387324 0.0020127215
O -0.6391224472 -1.3325285238 0.1167864187
H 2.1921407286 -0.9553545016 0.1771988093
H 2.9134388459 0.6416718207 0.3108191584
H 2.1755239325 0.1402301287 -1.2107807202
H 0.7315399411 1.7326347524 0.0950780487
H 0.6631517616 0.5614942694 1.4169716389
H -1.6930616788 1.7707495373 -0.3899283311
H -2.5889507635 0.2427693024 -0.4368666901
H -1.878192597 0.7947434969 1.0793783552
H 0.1571209303 -1.8427672978 -0.079859104
*
