! pbe def2-sv(p) def2/J RI DEFGRID1 loosescf d4 GCP(DFT/SV(P)) printgap
%output
    printlevel normal
end
* xyz 0 1
C -2.5142905551 -0.5905345844 -0.2619689219
C -1.263498166 -0.4438830339 0.6197525805
H -1.4961336109 -0.7650416625 1.6470239436
C -0.7439459404 1.0036697946 0.7342322425
H -1.5842416459 1.6920977513 0.5573421398
C 0.3442887606 1.3170316268 -0.3095506276
H 0.7992231211 2.281590547 -0.0456043035
C 1.4876615272 0.2645808816 -0.2828552241
H 1.7412896514 0.0081986664 -1.3197459562
C 1.0307477353 -1.0306501753 0.4035352983
H 1.1141288455 -0.8937843055 1.4975611255
O -0.3036400063 -1.3275021888 0.0579204739
O 1.8228078742 -2.0660652834 -0.0491671947
O 2.6117584934 0.732891292 0.4186676187
O -0.1931151008 1.4936077875 -1.5928048376
O -0.2681799259 1.1516093171 2.0529325244
O -2.2030517071 -0.442416781 -1.627625131
H -3.2425566123 0.1828056937 -0.0163523156
H -2.9570154176 -1.5740508831 -0.0798020527
H 1.5166469478 -2.9052226326 0.3295099248
H 3.1270869914 1.3252417281 -0.1471209907
H -0.9156251972 0.84790518 -1.7517435606
H 0.030692035 2.0603150411 2.200812303
H -1.6434713254 -1.1910576965 -1.8865623446
*
