! wb97x-v def2-tzvp def2/J RIJCOSX DEFGRID2 scfconv7 GCP(DFT/TZ) printgap
%output
    printlevel normal
end
%cpcm
    smd true
    smdsolvent "water"
end
* xyz 0 1
C 1.2335820303577703 -0.01053079087214223 -1.6611294132579598e-06
S -0.6055407732387657 0.04662165447416106 9.903733111307753e-07
H 1.576999627732037 1.0262757266872533 -3.2359643673331154e-05
H 1.606377135940625 -0.5097444879046875 -0.8961530438262455
H 1.6063823279381517 -0.5096943450942171 0.8961755326440732
H -0.809465530757434 -1.2838252959343137 1.9820885304702787e-05
*
