! r2scan-3c def2/J RI DEFGRID2 scfconv6 printgap
%output
    printlevel normal
end
* xyz 0 1
C 1.8652443592 -1.06645949 0.0476700821
C 1.1048002484 0.1772506064 0.4959143749
C -0.3600872875 0.2106443015 0.013265685
C -1.0279401844 1.4958978586 0.5198888224
C -1.1423930036 -1.0074541701 0.507296614
O -0.4122425997 0.1634946422 -1.4104164684
H 1.7118193967 -1.2337018947 -1.0162019804
H 1.5261804482 -1.9461646443 0.5873723891
H 2.9294856284 -0.9417116494 0.2313062956
H 1.6113003493 1.063271783 0.1034178213
H 1.1142086748 0.2456352221 1.5843989651
H -0.454694403 2.3711758076 0.2205639156
H -2.0303530321 1.5770936399 0.1060871644
H -1.0963826119 1.4806728621 1.6035030106
H -2.1921657786 -0.8943164169 0.249967813
H -0.7711698518 -1.9053533794 0.0230030391
H -1.0453388131 -1.1076905189 1.5836982412
H 0.0021092978 0.9614194545 -1.7648972957
*
