! pbe def2-sv(p) def2/J RI DEFGRID1 loosescf d4 GCP(DFT/SV(P)) printgap
%output
    printlevel normal
end
* xyz 0 1
C -2.2169902741 -1.1951297147 0.1111352434
C -0.8482448635 -0.5717682211 0.4309727353
H -0.7968587601 -0.2986496569 1.4956967746
C -0.5959597338 0.6987842806 -0.394925475
H -0.6492442141 0.4378439972 -1.4653507473
C 0.808409165 1.2726696076 -0.1054365144
H 0.691287959 2.0705587615 0.635344607
C 1.7447390824 0.1988522226 0.4860643137
H 2.7705469585 0.471617641 0.2043183385
C 1.4110275345 -1.1565832796 -0.1582915345
H 2.0726824657 -1.9457428936 0.2329053116
O 0.1140178389 -1.5889416384 0.1629166382
O 1.5847455885 -1.0113135777 -1.5361546242
O 1.5872285745 0.1655219982 1.8793774539
O 1.3807813728 1.8719494918 -1.2352822249
O -1.5351336421 1.6996408841 -0.0939687961
O -3.2961994651 -0.3900580306 0.515837784
H -2.2539045544 -2.1869373778 0.5736284073
H -2.3146206389 -1.3156836709 -0.9705551366
H 1.4352606066 -1.8598322574 -1.9813632191
H 2.2955415748 -0.3557216293 2.2849574395
H 1.5385294538 1.1847799956 -1.9032072116
H -2.4279227864 1.3081606373 -0.1138077939
H -3.3596577545 -0.3895995951 1.4815933784
*
