! pbe def2-sv(p) def2/J RI DEFGRID1 loosescf d4 GCP(DFT/SV(P)) printgap
%output
    printlevel normal
end
* xyz 0 1
C -2.0586174278 -1.3945813051 -0.0955346974
C -1.0021001229 -0.5295012623 0.6079223313
H -1.4160589228 -0.1776548396 1.561247608
C -0.6542439192 0.6998203437 -0.2408416008
H -0.5788713557 0.4145880063 -1.3026212049
C 0.7058603078 1.2504511361 0.1998879446
H 0.683317098 1.4422043942 1.2838095224
C 1.7955920695 0.2111540723 -0.0798907848
H 2.1013585707 0.3338490283 -1.1254541369
C 1.2399072 -1.2263756151 0.0809110577
H 2.0023347724 -1.8304604308 0.5925269603
O 0.1393999556 -1.3064211644 0.9515389684
O 0.9499456055 -1.7293619987 -1.1869411151
O 2.8634176857 0.4395318175 0.8039877218
O 1.0278224619 2.4258635603 -0.4971332282
O -1.604394573 1.7236173122 -0.0795358439
O -3.2243400016 -0.6148075974 -0.2448949509
H -2.2474230963 -2.2804241762 0.5219421422
H -1.6711019284 -1.7066487444 -1.0732735338
H 0.8461910603 -2.6930532557 -1.1500020534
H 3.7004441937 0.1733597756 0.3986497029
H 0.2626009332 3.0198293408 -0.4418946767
H -2.4863083973 1.3452586482 -0.2315646337
H -3.9215496043 -1.1511929161 -0.6477566309
*
