! wb97x-v def2-tzvp def2/J RIJCOSX DEFGRID2 scfconv7 GCP(DFT/TZ) printgap
%output
    printlevel normal
end
%cpcm
    smd true
    smdsolvent "water"
end
* xyz 0 1
C -0.7349669600646345 -1.2103885218232722 -6.472319425142514e-06
C 0.6573375293334384 -1.2142330123027114 2.1011047275636598e-05
C 1.3221396829857117 -0.00136786111462779 -5.084851078445038e-05
C 0.6573199685602592 1.2128275625094052 -0.00015931142773245133
C -0.7337457952932785 1.211670394231245 -0.00019580819268207633
C -1.425904629101363 0.0010112668467537928 -0.00011288224851012171
O -2.8034215829655498 0.0572712312732511 -0.00016554797782361583
F 2.6861045948046813 -0.0014782780361377512 -3.4144003075772645e-05
H -1.2841838767843063 -2.147295715024418 4.455130989926022e-05
H 1.2141103982511097 -2.144833502718091 9.493662511890994e-05
H 1.21639159447846 2.14203380766173 -0.00024757430664544235
H -1.2844645782698252 2.146088611574733 -0.00031448607736002984
H -3.152560520175234 -0.8448248060747879 -0.00018732808228188934
*
