! wb97x-v def2-tzvp def2/J RIJCOSX DEFGRID2 scfconv7 GCP(DFT/TZ) printgap
%output
    printlevel normal
end
* xyz 0 1
C -3.2094944619275414 0.005111284239561386 0.8440653053964491
C -2.4871235591110827 -0.006774450628261524 -0.508046068529847
C -0.9892383755390951 -0.004909364837607013 -0.34618078486626663
C -0.2772908702635248 1.1943472656575482 -0.2393965699494034
C 1.0980619266914597 1.2081002449501395 -0.03258434948288709
C 1.7872928934555037 0.0014972366178218142 0.07368155243658735
C 1.1028042120588322 -1.2083701244921212 -0.028960893325243566
C -0.2740521287006927 -1.2005924069001295 -0.2362823360698066
O 3.1516064286256165 0.060636869895926704 0.27606484667548836
H -2.9380351315060613 0.8953836391591761 1.4214761702021548
H -2.9389727679748434 -0.8757461814922989 1.4361546955699296
H -4.296049981161719 0.004651224173841878 0.7089046829803517
H -2.793123412594637 0.8702024913199349 -1.089417591686263
H -2.792759300035928 -0.8939301648720147 -1.0738590819932212
H -0.808388968125763 2.1392525303095122 -0.3220962006272286
H 1.64223799196975 2.1443241065583925 0.043034009822162884
H 1.6460821895252982 -2.146452862773458 0.04824067515126514
H -0.8009559302396583 -2.1480848558739254 -0.3162280500752044
H 3.498747703895899 -0.8405718572132417 0.3294971743768568
*
