! r2scan-3c def2/J RI DEFGRID2 scfconv6 printgap
%output
    printlevel normal
end
* xyz 0 1
C 1.433731992 0.9385532403 -0.2716921121
C 0.760953598 -0.3635796874 0.0558468029
O 1.4067311063 -1.3893776588 0.2247726734
C -0.7059153156 -0.3786346681 0.2021187797
C -1.4894199791 0.8541464307 0.5929328084
C -1.6085734991 0.3300183216 -0.7890566114
H 1.4749454375 1.540028122 0.6346982098
H 2.4504798043 0.745942028 -0.6029641209
H 0.8904904982 1.4926333846 -1.0295868904
H -1.0613109489 -1.3329984554 0.5737771363
H -2.3110934365 0.7071477675 1.2758278463
H -0.9429306656 1.7688149144 0.7531110779
H -2.5092524532 -0.190053286 -1.0747076572
H -1.1451898897 0.8723378893 -1.5974525577
*
