! wb97x-v def2-tzvp def2/J RIJCOSX DEFGRID2 scfconv7 GCP(DFT/TZ) printgap
%output
    printlevel normal
end
%cpcm
    smd true
    smdsolvent "water"
end
* xyz 0 1
C -2.7582079124806853 -0.9040835363220133 -0.030138443311261188
N -1.8920181442126758 0.25489781702767145 0.024780645139540907
C -0.5262005014056524 0.18116410553645068 0.012544145236832633
C 0.15266302758816785 -1.052862633758651 -0.05619451478684117
C 1.5449633861649779 -1.0867571904850244 -0.06671873064616932
C 2.299403669755795 0.08287215599329177 -0.010063525456845041
C 1.6287521581564586 1.308075471265862 0.05842915096877305
C 0.24406970614665022 1.364324032512179 0.06978138482188372
H -3.7951815577753836 -0.5640115540220092 -0.007083305121151915
H -2.6020996850336107 -1.5762442337732676 0.824767382213419
H -2.6114888535801275 -1.4852762077176493 -0.9508324448481454
H -2.3131722648894293 1.1671672553488448 0.073880587838603
H -0.40584656453320295 -1.9814623368774726 -0.10101367719088558
H 2.0446026613914823 -2.0502518092286612 -0.1200934536790763
H 3.383537703109328 0.04480705229962679 -0.018802493283941707
H 2.1946710677687262 2.2345541371700715 0.10301006065531274
H -0.26625972051298114 2.323033544708564 0.12269793092083936
*
