! pbe def2-sv(p) def2/J RI DEFGRID1 loosescf d4 GCP(DFT/SV(P)) printgap
%output
    printlevel normal
end
* xyz 0 1
C -2.4131904816 0.0129777375 -0.0002677973
C -0.9869738441 -0.5223706373 0.0002854625
C 0.027713038 0.6307063186 0.0001592969
C 1.3749026284 0.1390531689 5.5098e-05
N 2.4454818529 -0.2700190203 -0.0002070424
H -2.5944185812 0.6211392879 -0.8833795059
H -3.1216574034 -0.8109258542 -1.93329e-05
H -2.5947870074 0.6220131691 0.8821658226
H -0.824979384 -1.1449791726 0.8824647843
H -0.8245331233 -1.1455437242 -0.8814127274
H -0.1098647364 1.2540432735 0.8874363759
H -0.1100299086 1.2539756918 -0.8871435359
*
