! pbe def2-sv(p) def2/J RI DEFGRID1 loosescf d4 GCP(DFT/SV(P)) printgap
%output
    printlevel normal
end
* xyz 0 1
C -2.4324135004 1.1632138087 0.0611261506
C -1.4288334317 0.0378140691 -0.191689722
C -2.1000084125 -1.3116432561 0.0624078263
C -0.1798031383 0.2197591818 0.6912846328
C 1.1854901297 0.021249721 0.0050419857
C 1.4207401183 1.1058569731 -1.0497599502
C 2.272912063 0.1432530579 1.0794584602
C 1.2930963832 -1.3598900452 -0.6440986384
H -3.3191776991 1.0294228134 -0.5549241597
H -2.7392648738 1.1696216146 1.1050835702
H -1.9939177378 2.1296932905 -0.1767009354
H -1.1406187599 0.0812159968 -1.2458353198
H -2.9533153482 -1.4425512539 -0.600108972
H -1.4070984815 -2.1307396076 -0.107385378
H -2.4550594815 -1.3679189172 1.0896619514
H -0.187051684 1.2294593155 1.107997891
H -0.2437253093 -0.4720700778 1.5340745556
H 2.4057430614 0.9888255973 -1.4961690215
H 1.364649054 2.093942063 -0.5983688975
H 0.6823052916 1.0516715094 -1.8452940961
H 3.2602421715 0.0357958853 0.6360204259
H 2.1528232171 -0.6285749889 1.8364677986
H 2.2218328174 1.1133871242 1.5687649638
H 1.1218392005 -2.1414852793 0.0927422853
H 2.2877121409 -1.4991879988 -1.0626731951
H 0.5705123054 -1.4742384789 -1.4474574627
*
