! r2scan-3c def2/J RI DEFGRID2 scfconv6 printgap
%output
    printlevel normal
end
%cpcm
    smd true
    smdsolvent "water"
end
* xyz 0 1
C -2.412182131 -1.0188273407 0.7934319581
C -1.720598044 0.0169378523 -0.0483814839
C -2.4531689161 0.8686815748 -0.7644459282
C -0.2471530634 0.0324817626 -0.0323040658
C 0.471057309 -0.8697766474 0.7565588283
C 1.8537516567 -0.8633957947 0.7794892589
C 2.5638886287 0.044966469 0.0147946616
C 1.8707900732 0.9473511927 -0.7748506952
C 0.4897916114 0.9403800201 -0.7979453506
H -2.1591512896 -0.8898005718 1.8443730207
H -3.4897655683 -0.9293217838 0.6868879974
H -2.1178932661 -2.0212132361 0.4874203572
H -2.0351248376 1.6377078919 -1.3880436628
H -3.5288179708 0.8227247577 -0.7482577473
H -0.0460514502 -1.5921596487 1.3665924792
H 2.3794042106 -1.574269585 1.4002126688
H 3.6433002558 0.0505793962 0.0325797169
H 2.4107356819 1.6624593906 -1.378179633
H -0.0161589765 1.6559187956 -1.4258751268
*
