! wb97x-v def2-tzvp def2/J RIJCOSX DEFGRID2 scfconv7 GCP(DFT/TZ) printgap
%output
    printlevel normal
end
%cpcm
    smd true
    smdsolvent "water"
end
* xyz 0 1
C 1.6735754790912944 1.3715174541034727 -1.128060668919234
C 3.0495030160320673 1.5321929285686036 -1.2069293820339304
C 3.8833983856119736 0.7818868956658893 -0.3856686734894085
C 3.3315616773665058 -0.12926393167487132 0.5180015723288444
C 1.955156700219358 -0.29301479428344124 0.5943304074296634
C 1.1163477732074136 0.454424402862548 -0.23375469861593332
C -0.35529904030963433 0.3305958161573566 -0.13204257602547945
C -1.0982442090121567 1.483693778307263 0.11985568260555572
C -2.4777125070847728 1.4369112428882156 0.2316973610928898
C -3.162822379513693 0.2275403982260422 0.09662148408701497
C -2.432678462183652 -0.9378139996173479 -0.17092188298615343
C -1.039088447426468 -0.8816523822800644 -0.28940270393488016
Cl -0.16500062202833654 -2.329022254909154 -0.7040057803477296
Cl -3.2661280219655184 -2.4424556576503247 -0.3713824586618924
Cl -4.884676209185174 0.16876225237654788 0.2497514882726653
Cl -3.341315714616287 2.9124476598609914 0.5567477602664328
Cl 4.348942026458163 -1.075367960614619 1.5748614129888499
Cl 5.609747039923904 1.0006856093503538 -0.5015123555920535
H 1.0293661645166636 1.9558048454048955 -1.776079713045482
H 3.479891467366843 2.2376840025526636 -1.9084331868868858
H 1.5421742043926228 -0.9888526930982845 1.3151913842529632
H -0.5816637950076855 2.428078635045826 0.24591225601201572
*
