! wb97x-v def2-tzvp def2/J RIJCOSX DEFGRID2 scfconv7 GCP(DFT/TZ) printgap
%output
    printlevel normal
end
%cpcm
    smd true
    smdsolvent "water"
end
* xyz 0 1
C -1.0245876962477751 -0.7319966913286344 -0.23566026707641463
C -1.0288875403048505 0.7229110388074098 0.2404603011543329
C 0.3699478782657447 1.1731064264490703 -0.15464807482434406
O 1.2205177627203214 0.0072721605934461 0.004236794567297563
C 0.38324664009954823 -1.1719792251614953 0.1420758935098035
H -1.1614818360324997 -0.7758820297511626 -1.3214947569085085
H -1.791731429548975 -1.3471358760681647 0.24081096773422125
H -1.8073451534976352 1.3304263201149815 -0.22741339337397568
H -1.1521877751873362 0.7668062791521891 1.3279974846741853
H 0.39935698235547923 1.4963723507609328 -1.2047525019124083
H 0.7668819131914525 1.9769071190376946 0.47348538240512233
H 0.7840362829410247 -1.9585861840457988 -0.5053890327900656
H 0.42518542897373984 -1.5160376716316104 1.1847837867625461
*
