  24
        -28.54643317
 C         -2.0012925073       -0.7320667574        1.2566983873
 C         -1.5150188786        0.0043503030        0.0000040645
 C         -2.0021256648       -0.7325541480       -1.2560695051
 C         -2.1324605157        1.4057141080       -0.0001052066
 C          0.0060808824        0.0323453605       -0.0002694853
 C          0.7409491824        1.2117908385       -0.0002262426
 C          2.1263070674        1.1933230823       -0.0000293621
 C          2.8118493814       -0.0070328401        0.0001043200
 C          2.0951543706       -1.1914434397       -0.0000316821
 C          0.7132266416       -1.1681299244       -0.0002161311
 H         -3.0884782143       -0.7472189096        1.2831659840
 H         -1.6454782098       -1.7581746062        1.2773121601
 H         -1.6400947069       -0.2277017010        2.1505297261
 H         -1.6423532647       -0.2280166888       -2.1503690405
 H         -1.6455954373       -1.7583987260       -1.2770339906
 H         -3.0893316731       -0.7485171116       -1.2813074212
 H         -1.8386105575        1.9623906194       -0.8867776596
 H         -3.2171094856        1.3220086126        0.0001888849
 H         -1.8381789819        1.9627096173        0.8862125415
 H          0.2440159332        2.1680156742       -0.0003224776
 H          2.6706402057        2.1265785663        0.0000736774
 H          3.8915803804       -0.0212241456        0.0003406343
 H          2.6149440143       -2.1385343238       -0.0000059431
 H          0.1820727347       -2.1081209217       -0.0003286682
  24
        -28.54560738
 C         -2.0885913444        0.3098817362        1.4018334591
 C         -1.5159273417       -0.0259346448        0.0188753935
 C         -2.0733205917       -1.3929964504       -0.3994779573
 C         -1.9765687690        1.0380857292       -0.9887158355
 C          0.0061211746       -0.0242429811        0.0253868098
 C          0.7265753847        0.7837102330        0.8997793513
 C          2.1100537318        0.8153219629        0.8767874362
 C          2.8129246810        0.0405145997       -0.0280472742
 C          2.1125269459       -0.7590579406       -0.9132727599
 C          0.7293066773       -0.7864731663       -0.8874283374
 H         -3.1667755450        0.1673594247        1.3961308787
 H         -1.6600376530       -0.3404042535        2.1610622261
 H         -1.8967994548        1.3438884176        1.6744932904
 H         -3.1526637116       -1.4055401990       -0.2660975282
 H         -1.8706464790       -1.6065350503       -1.4450522299
 H         -1.6417565179       -2.1834931488        0.2104094430
 H         -1.5978124460        0.8103897031       -1.9827433984
 H         -3.0628952485        1.0727578993       -1.0290754864
 H         -1.6067763985        2.0196807291       -0.7001308114
 H          0.2140792270        1.4052793617        1.6159951684
 H          2.6401826206        1.4512363898        1.5709411072
 H          3.8924054200        0.0622675874       -0.0456178978
 H          2.6446210872       -1.3662051842       -1.6312756830
 H          0.2177665691       -1.4164896275       -1.5972069024
