! wb97x-v def2-tzvp def2/J RIJCOSX DEFGRID2 scfconv7 GCP(DFT/TZ) printgap
%output
    printlevel normal
end
* xyz 0 1
C -1.2040449342127313 1.0305843641842332 0.9095673243244676
C -0.5172778394289361 0.213929557540179 0.01925935152163519
C -1.2247721848140531 -0.7024139960185474 -0.7601701549204294
C -2.6147937599847197 -0.8014489929071463 -0.6533757139481183
C -3.302336990123427 0.024073013829820817 0.24637913198574776
C -2.5823250005086473 0.9364290514057408 1.0230275853770077
Cl -3.4009277535825935 1.9759679783255026 2.1517981316834556
Cl -5.021832198422284 -0.0868573224067399 0.38980460157785374
Cl -3.4845279848825954 -1.9379499607495145 -1.6251973308032819
Cl -0.3541183101830191 -1.7228204851895212 -1.863190386079707
C 0.9558426891100944 0.32735136736871295 -0.08901607445126787
C 1.554754565954471 1.1639322435416555 -1.0317334679762198
C 2.929957113868965 1.2869018245673722 -1.1462343393613357
C 3.7385064419956078 0.5526775495535199 -0.2906030354068126
C 3.1893987127796697 -0.30079742886784533 0.6713044672841934
C 1.7968783695968846 -0.40228409740123217 0.756016232633427
Cl 1.0778113278336867 -1.4722288998345208 1.920760124614196
Cl 4.208248478867241 -1.2134879003309915 1.7294404235980934
Cl 5.462561443003178 0.7166625142824026 -0.440746740719851
Cl 0.5426164752624536 2.0859426829263246 -2.1151043021532794
H -0.6552154325227016 1.7409016856906214 1.5168878930417473
H 3.370463788400617 1.942347904490069 -1.8869589286003638
*
