! pbe def2-sv(p) def2/J RI DEFGRID1 loosescf d4 GCP(DFT/SV(P)) printgap
%output
    printlevel normal
end
* xyz 0 1
C -2.4217014898 -1.0834481788 -0.3777919297
C -1.0803672662 -0.5970185081 0.1889294997
H -1.1467725989 -0.5972815397 1.2886988267
C -0.749129593 0.8287149978 -0.2801086826
H -0.7273923544 0.8443212687 -1.3814379937
C 0.6434255818 1.2267189051 0.2249627955
H 0.6169242987 1.2819029165 1.3267747436
C 1.6709550775 0.1674368185 -0.2046961775
H 1.7267155408 0.156616941 -1.299394944
C 1.1992098259 -1.215643616 0.290856808
H 1.1560034342 -1.2072860726 1.3949226657
O -0.0801081001 -1.4996040717 -0.2370760903
O 2.0563491663 -2.237693885 -0.0486564888
O 2.9605918867 0.4987262663 0.240392208
O 0.9527711643 2.4932449056 -0.305388299
O -1.74089099 1.6994450932 0.1993072253
O -3.5189803166 -0.5095730873 0.277454661
H -2.4909634916 -2.1624685514 -0.2250109921
H -2.4525295097 -0.8785486591 -1.4560369245
H 1.9998371769 -2.4145219365 -1.0007221796
H 3.0791356904 0.2351330493 1.1642359447
H 1.906271091 2.6432211026 -0.2145641599
H -1.4700980618 2.6095741221 0.0028523443
H -3.403539668 0.4555282543 0.2800802507
*
