! r2scan-3c def2/J RI DEFGRID2 scfconv6 printgap
%output
    printlevel normal
end
* xyz 0 1
C 1.532285783 1.1922974527 4.4309e-05
C 0.1501596806 1.2398715011 -4.64709e-05
C -0.5525549563 0.0322182735 -0.0001358528
C 0.1757268684 -1.1640116636 -3.6842e-05
N 1.4921677052 -1.1981198646 4.81239e-05
C 2.1540952119 -0.0497288975 0.000194529
C -1.9620390176 0.0056796811 -0.0003206489
N -3.1098924842 -0.0244240059 0.0002910492
H 2.1164490194 2.0974313671 -9.67287e-05
H -0.3833351245 2.1783323373 2.19907e-05
H -0.3302048669 -2.1195470935 -0.0003255575
H 3.2311224286 -0.1378388523 -0.0007265028
*
