  19
        -23.05591531
 C         -1.8959724418       -0.0001699748        0.2790486608
 C         -1.1873115534       -1.2535853184       -0.2270177447
 C          0.2761958634       -1.2528680193        0.2052451279
 C          0.9866419011        0.0001392149       -0.3139352622
 C          0.2759457608        1.2529908742        0.2052628310
 C         -1.1876126844        1.2534622638       -0.2269725823
 O          2.3664333605        0.0000384350        0.0081215127
 H         -1.8966202550       -0.0002427983        1.3711946261
 H         -2.9341131609       -0.0002497948       -0.0570992267
 H         -1.6831482206       -2.1453081379        0.1600622890
 H         -1.2409360662       -1.2853974852       -1.3173303187
 H          0.3345302224       -1.2686900963        1.2966510554
 H          0.7876682992       -2.1394777178       -0.1742491700
 H          0.9675984875        0.0002737428       -1.4103009530
 H          0.3344438671        1.2689947905        1.2967459625
 H          0.7871506484        2.1397623091       -0.1744402407
 H         -1.6836702258        2.1450198266        0.1602004252
 H         -1.2412191951        1.2852913176       -1.3173480597
 H          2.4617645412       -0.0002171312        0.9709045447
  19
        -23.05457619
 C         -1.8879967470       -0.0126086231        0.3151802494
 C         -1.1818089460       -1.2601394644       -0.2077757370
 C          0.2909825903       -1.2464317296        0.1869076321
 C          0.9825491598        0.0106887742       -0.3390530701
 C          0.2713672517        1.2595351015        0.1882434987
 C         -1.2016385463        1.2446851106       -0.2102067288
 O          2.3393504460       -0.0430860940        0.0710899832
 H         -1.8588853847       -0.0116907123        1.4066972532
 H         -2.9343784977       -0.0208296163        0.0055878123
 H         -1.6576072158       -2.1561144552        0.1933685026
 H         -1.2633406059       -1.2941551849       -1.2965578123
 H          0.3922820107       -1.2608915716        1.2737853225
 H          0.8065787082       -2.1238860948       -0.2066519376
 H          0.9365853740        0.0076811920       -1.4414845314
 H          0.3630802372        1.2759302847        1.2765197407
 H          0.7551433719        2.1559674999       -0.2070192231
 H         -1.6961196029        2.1336911995        0.1846388575
 H         -1.2800089272        1.2712930411       -1.2995490595
 H          2.7936814683        0.7578477565       -0.2229131196
  19
        -23.05298140
 C         -1.7945016022       -0.0001257028        0.1539403225
 C         -0.9452520573       -1.2520048125        0.3531206214
 C          0.2350746209       -1.2614296861       -0.6164753791
 C          1.0993816655        0.0000980987       -0.4874187697
 C          0.2348761141        1.2615329576       -0.6163904243
 C         -0.9454003729        1.2518542346        0.3532405570
 O          1.8736622737        0.0001632632        0.6984665443
 H         -2.6290542663       -0.0002300412        0.8574740456
 H         -2.2062371913       -0.0000818018       -0.8575265734
 H         -0.5826949188       -1.2880273738        1.3831107583
 H         -1.5511355961       -2.1449632571        0.1895869456
 H          0.8628595492       -2.1363781243       -0.4364675763
 H         -0.1370345584       -1.3148047997       -1.6407250306
 H          1.8511621859        0.0002038917       -1.2864786827
 H          0.8625169057        2.1365373257       -0.4362141193
 H         -0.1371673372        1.3149485723       -1.6406548584
 H         -0.5826598333        1.2877796866        1.3831638644
 H         -1.5514375700        2.1447539875        0.1899113043
 H          1.2723197177       -0.0014370072        1.4556603346
  19
        -23.05286278
 C         -1.7757301214       -0.0116591522        0.1864424245
 C         -0.9074002721       -1.2530530817        0.3645503593
 C          0.2408577159       -1.2537545098       -0.6404721450
 C          1.0927521330        0.0107433276       -0.5049104570
 C          0.2155390590        1.2606666468       -0.6450070227
 C         -0.9274967720        1.2430784876        0.3663135216
 O          1.7580433448       -0.0420937378        0.7453983848
 H         -2.5884465764       -0.0191008940        0.9149196673
 H         -2.2169474585       -0.0148328671       -0.8131492606
 H         -0.4886624054       -1.2616725498        1.3724926844
 H         -1.5061798936       -2.1562800443        0.2353929337
 H          0.8791883209       -2.1228612226       -0.4744901063
 H         -0.1515014867       -1.2998163343       -1.6574840642
 H          1.8483074972        0.0129317297       -1.3103365156
 H          0.8255391523        2.1562183094       -0.5054009329
 H         -0.1878140800        1.2829077677       -1.6587482164
 H         -0.5122721815        1.2496751085        1.3761623407
 H         -1.5413032122        2.1372138135        0.2436217135
 H          2.2992615488        0.7512215980        0.8489781172
  19
        -23.04753491
 C         -1.8124798335        0.0410531797       -0.4232652535
 C         -1.2016813855       -1.3135886196       -0.0404198768
 C          0.2518598827       -1.1647928053        0.4240933989
 C          0.9404224850       -0.0272312395       -0.3327573162
 C          0.2974357122        1.3180117613        0.0494034354
 C         -1.1860268777        1.1592612310        0.4029679728
 O          2.3414571590       -0.0179432031       -0.1279621711
 H         -2.8916255654        0.0170938108       -0.2669977768
 H         -1.6367961393        0.2458054921       -1.4807914130
 H         -1.7825639997       -1.7694396629        0.7627239141
 H         -1.2469067185       -1.9842220730       -0.8996779065
 H          0.2875356572       -0.9441717346        1.4930432113
 H          0.7995808489       -2.0935279759        0.2564414724
 H          0.8361257810       -0.2025729573       -1.4090171707
 H          0.8359664318        1.7348777609        0.9033698822
 H          0.4169769040        2.0156708082       -0.7806183252
 H         -1.2988146997        0.9214796611        1.4618587821
 H         -1.7063532615        2.1001722969        0.2202690398
 H          2.5188776407        0.0921598485        0.8170521947
  19
        -23.04729155
 C         -1.9176774043       -0.0259863192        0.2097158752
 C         -0.9445513028       -1.1858536589        0.4546176834
 C          0.1863381871       -1.1595127564       -0.5685504214
 C          1.0601393693        0.1007048731       -0.4141854805
 C          0.2475519104        1.2570372343        0.1883638474
 C         -1.1883509731        1.2151744995       -0.3227894328
 O          2.2352479568       -0.1566130388        0.3355562851
 H         -2.4272231023        0.2148329495        1.1440710744
 H         -2.6798478810       -0.3291163970       -0.5094241230
 H         -0.5266202814       -1.1152964975        1.4603242850
 H         -1.4771104906       -2.1357271946        0.3920415296
 H          0.8269385573       -2.0366484870       -0.4598321760
 H         -0.2396733574       -1.1842642935       -1.5719365202
 H          1.4425594048        0.3942500149       -1.3982734328
 H          0.2480042920        1.1712500978        1.2771842544
 H          0.7219957334        2.2056567996       -0.0658171124
 H         -1.7182382813        2.1175876785       -0.0161890194
 H         -1.1682333089        1.2006605487       -1.4139086221
 H          1.9811757253       -0.4191183651        1.2314265204
  19
        -23.04667511
 C         -1.9039073273       -0.0436530117        0.2458594926
 C         -0.9081548075       -1.1894029624        0.4632009659
 C          0.1934541942       -1.1479358920       -0.5889306689
 C          1.0554584688        0.1139534291       -0.4349201892
 C          0.2399118796        1.2704746567        0.1651997634
 C         -1.2064944109        1.2035736613       -0.3127327674
 O          2.1637404205       -0.2221906344        0.3866863920
 H         -2.3864676747        0.1941374619        1.1951465714
 H         -2.6841773738       -0.3590847444       -0.4484903786
 H         -0.4470784606       -1.1100440878        1.4487493319
 H         -1.4275721207       -2.1473746512        0.4195481059
 H          0.8518467619       -2.0113795685       -0.4848283204
 H         -0.2489030513       -1.1723797402       -1.5849872120
 H          1.4310180599        0.4071993956       -1.4294709331
 H          0.2664328222        1.1894299980        1.2535480520
 H          0.6870851325        2.2259863769       -0.1152217903
 H         -1.7422784724        2.1007328446       -0.0005487165
 H         -1.2114596113        1.1802060031       -1.4041596418
 H          2.7108025322        0.5627167145        0.5218987192
  19
        -23.04647739
 C         -1.8846206142        0.0197418271        0.2990665001
 C         -1.1950431127       -1.2115520737       -0.3023157476
 C          0.2674303611       -1.2732004594        0.1210116527
 C          1.0628018476       -0.0914794799       -0.4523293417
 C          0.1594533500        1.1406554322       -0.6322348723
 C         -0.9012472949        1.1852053450        0.4615424018
 O          2.1298190621        0.1568638997        0.4496372505
 H         -2.3055662912       -0.2307585039        1.2738519812
 H         -2.7107243394        0.3188919833       -0.3481605738
 H         -1.7082294837       -2.1183710688        0.0189572446
 H         -1.2432087131       -1.1758466205       -1.3922922731
 H          0.3432623246       -1.2255813206        1.2085993503
 H          0.7238843604       -2.2100108503       -0.1997662250
 H          1.4835034112       -0.3699296790       -1.4323897848
 H          0.7726818273        2.0432959793       -0.5994705003
 H         -0.3219091639        1.0988530311       -1.6098552704
 H         -0.3989158609        1.1217241162        1.4284369514
 H         -1.4383453362        2.1340236356        0.4284055775
 H          2.6824063713        0.8720301133        0.1072478751
  19
        -23.04642078
 C         -1.8265474579       -0.0589262019       -0.3814010636
 C         -1.1585414179       -1.1643779066        0.4292886066
 C          0.3098563280       -1.3067664925        0.0183605235
 C          0.9373999450        0.0432615031       -0.3597792536
 C          0.2478951955        1.1742811772        0.4055200316
 C         -1.2165252254        1.3042743373       -0.0292812182
 O          2.3217904645       -0.0414284586       -0.0619745566
 H         -2.8997381476       -0.0448537697       -0.1878459128
 H         -1.6853994100       -0.2700316644       -1.4430085578
 H         -1.2326516551       -0.9219407025        1.4902347497
 H         -1.6721466522       -2.1131988291        0.2709766864
 H          0.8972191416       -1.7206545427        0.8397125047
 H          0.4028147390       -1.9891038314       -0.8274105490
 H          0.8155060623        0.2223467351       -1.4401010914
 H          0.3166595385        0.9528585059        1.4717610130
 H          0.7710144146        2.1164640184        0.2299173885
 H         -1.7821602598        1.7663186058        0.7809737031
 H         -1.2856978247        1.9641351979       -0.8955972108
 H          2.7510165308        0.7936522112       -0.2914438354
