! wb97x-v def2-tzvp def2/J RIJCOSX DEFGRID2 scfconv7 GCP(DFT/TZ) printgap
%output
    printlevel normal
end
* xyz 0 1
C -1.3660903710073784 -0.876454749849677 0.22881848626351634
S 0.00011750407843157871 0.13864125042855407 -0.42864818797637294
O 0.001713249764468185 1.4380455544033515 0.40487528878919776
C 1.364068922252668 -0.8796501073438149 0.22854632531271962
H -1.2524047686423205 -0.9650685454340028 1.3128680586130077
H -1.338640554385881 -1.8601339546303295 -0.24908515807095688
H -2.300073346522831 -0.3678468204692674 -0.021550133006270282
H 1.2512989771294718 -0.9663386180845085 1.312850362111843
H 2.2993265236076175 -0.37426724133945066 -0.023576242517219858
H 1.333058822545049 -1.863942756684424 -0.2478731726191999
*
