! wb97x-v def2-tzvp def2/J RIJCOSX DEFGRID2 scfconv7 GCP(DFT/TZ) printgap
%output
    printlevel normal
end
%cpcm
    smd true
    smdsolvent "water"
end
* xyz 0 1
C 2.8983551441625917 -0.07455241557757888 0.015482052992669443
C 1.4005146511062045 0.0038418530581732268 -0.004651498612562396
C 0.7131232132375595 1.2160256555491284 -0.005715270038473638
C -0.6764785371005754 1.2196331140685095 -0.004737628376128303
C -1.3687852940464755 0.009125914781937992 -0.0016660801485861986
N -0.7180467558910728 -1.1704355809511984 -0.005776825944010911
C 0.6197673768826597 -1.1533708647236194 -0.008589821251429933
C -2.8662914710835894 -0.03768465192613925 0.011140358954940961
H 3.2625718685270986 -0.33261844772178717 1.0166003632586185
H 3.263056252066717 -0.8449243877590726 -0.6705229389902866
H 3.344848476005037 0.8824191349207832 -0.2657874292398138
H 1.2630722995832373 2.153247640162218 -0.010200209263704843
H -1.2251338499825943 2.156055828531442 -0.008760039892214227
H 1.1098022463583663 -2.126851605559963 -0.01634607157125285
H -3.2278104762579694 -0.49142488629390774 0.9407541286529105
H -3.2943613874772875 0.9635543655356026 -0.07237344313227685
H -3.2421807356327568 -0.650658487179215 -0.814329239516386
*
