! pbe def2-sv(p) def2/J RI DEFGRID1 loosescf d4 GCP(DFT/SV(P)) printgap
%output
    printlevel normal
end
* xyz 0 1
C 2.1336992827 0.0377723738 0.5781445841
C 0.9528740744 -0.7506060331 0.0240491556
C -0.4028619314 -0.0063726975 -0.0887735993
C -0.3569314644 1.4501607717 0.3854654481
C -1.4798233627 -0.7578795634 0.7067182037
O -0.7275183831 -0.0391395237 -1.481031387
H 2.3537697658 0.9065851442 -0.0351526743
H 3.0127074163 -0.6025608077 0.5833177369
H 1.9474999915 0.3642461752 1.5974982948
H 0.8132312015 -1.6412419733 0.6383591518
H 1.1974412353 -1.0868306108 -0.9858336976
H -1.3447244113 1.8968906732 0.2876056799
H -0.059147523 1.5053416862 1.4271356661
H 0.3398500961 2.024594216 -0.2183216421
H -1.2060560014 -0.7986914631 1.7569969298
H -2.4421467717 -0.2570818187 0.6182806962
H -1.580508524 -1.7716894634 0.3256840196
H -1.5763535106 0.4026020031 -1.6194352037
*
