  5
        -10.76886314
 C          0.0004767171        1.1928449640        0.0000342509
 I         -1.7026212895       -0.0710344522       -0.0000016846
 I          1.7025631399       -0.0710825689        0.0000003887
 H          0.0005687198        1.8395352817        0.8829842068
 H          0.0010719713        1.8395893874       -0.8832291846
