! r2scan-3c def2/J RI DEFGRID2 scfconv6 printgap
%output
    printlevel normal
end
* xyz 0 1
C -3.6461144753 0.0405607545 0.0094849903
C -2.1519886142 0.0146299515 -0.0071460414
C -1.4251337763 1.2031507058 -0.0076840667
C -0.0457057141 1.1990523802 -0.0043897388
C 0.6545473878 -0.0096846993 -0.0007475588
C -0.07517707 -1.201498623 0.0001771871
C -1.4538658469 -1.1890947023 -0.0028076212
C 2.1274736653 -0.0911550419 0.0011796468
O 2.704275248 -1.1716836488 -0.0016426907
C 2.9009832809 1.1987016938 0.0072981822
H -4.0240779023 0.8326572458 -0.6320835908
H -4.0556878219 -0.9114183227 -0.3162585242
H -3.9973979563 0.2351204312 1.0224172196
H -1.9546618347 2.1442900905 -0.0115945864
H 0.4823594823 2.1384301463 -0.0064343649
H 0.4717925547 -2.1333406114 0.0022634254
H -1.9969069194 -2.1225006479 -0.0027780466
H 3.9649810251 0.9767870496 0.0118630982
H 2.6470248906 1.7787042082 0.8907329471
H 2.6557060847 1.781455996 -0.8768166387
*
