! r2scan-3c def2/J RI DEFGRID2 scfconv6 printgap
%output
    printlevel normal
end
%cpcm
    smd true
    smdsolvent "water"
end
* xyz 0 1
C -2.3872797077 -0.1858780433 0.0915878435
C -0.9161592787 -0.2799496703 0.1635901948
C -0.0556044355 0.6028960985 -0.3636701764
C 1.3766815623 0.4310765838 -0.2492669139
O 1.942825147 -0.4913234968 0.311495508
H -2.8008001694 -0.1645786019 1.0988497962
H -2.7858094673 -1.0753518756 -0.3941830954
H -2.7048661182 0.6993782774 -0.4513403922
H -0.5029766139 -1.1341953558 0.6868349391
H -0.4005217987 1.4767678219 -0.8951420033
H 1.9778619904 1.2268541003 -0.7264018303
*
