! pbe def2-sv(p) def2/J RI DEFGRID1 loosescf d4 GCP(DFT/SV(P)) printgap
%output
    printlevel normal
end
* xyz 0 1
C -2.3767145252 -1.1399442908 -0.3891564107
C -1.0763201645 -0.6231526729 0.2354677761
H -1.1594709094 -0.6490744263 1.3337630463
C -0.793786028 0.8373556956 -0.1733477319
H -0.9155159754 0.9471350701 -1.262805028
C 0.6434414484 1.2531682288 0.1724034298
H 0.70290198 1.4024773783 1.2611548793
C 1.6563956422 0.1739704953 -0.2292292375
H 1.6965541715 0.125233221 -1.3293661522
C 1.2085174709 -1.1964034385 0.3094132537
H 1.1977645224 -1.1603374815 1.4122661175
O -0.0652834489 -1.5123833297 -0.1932832365
O 2.0867857711 -2.2020889817 -0.0508699571
O 2.9090598675 0.5399129435 0.2935947676
O 0.9132179433 2.4575547483 -0.4993541261
O -1.6527664119 1.7137517623 0.5082441456
O -3.4539642641 -0.3556514868 0.0640225746
H -2.4938041827 -2.1894696897 -0.096686754
H -2.2777848758 -1.0852268813 -1.4803482853
H 1.8715339908 -2.5063114686 -0.9471306868
H 3.5173997296 -0.2106128192 0.2094575552
H 1.8069812759 2.7465426978 -0.2613260472
H -2.5651880404 1.3894434402 0.4042667513
H -4.2810959457 -0.7042617652 -0.2982977759
*
