! r2scan-3c def2/J RI DEFGRID2 scfconv6 printgap
%output
    printlevel normal
end
* xyz 0 1
C 2.0668097546 0.0325076369 -0.1199444609
C 0.7597129316 0.6681383516 0.3379886641
C -0.4570040084 0.0212882793 -0.3298608139
H -0.3059364286 0.0280902975 -1.4226015298
C -1.7402563598 0.7823924068 0.0041044807
O -0.5236259016 -1.3238676898 0.1188798488
H 2.2083389027 0.1797166013 -1.1884246292
H 2.0475237895 -1.0353012714 0.0826953094
H 2.9083181958 0.4743865277 0.4068380219
H 0.7622871839 1.7334552357 0.1049148596
H 0.6548214882 0.5485533119 1.4175854005
H -2.5973128712 0.3223608968 -0.4826599552
H -1.902736122 0.7751418225 1.0792953044
H -1.6610784903 1.8110117383 -0.3346483248
H -1.3008848706 -1.748915331 -0.2665070045
*
