! r2scan-3c def2/J RI DEFGRID2 scfconv6 printgap
%output
    printlevel normal
end
* xyz 0 1
C 1.6867199397 -1.0677806787 0.1692100868
C 1.0384544061 0.2565367449 -0.2198499542
C -0.459015699 0.3413954107 -0.0411308561
O -1.0498534984 1.4006290313 -0.0738591899
O -1.1382183685 -0.7838872511 0.141656924
H 2.7659316635 -0.9667229111 0.094604775
H 1.44894631 -1.3325626775 1.1969594254
H 1.390464189 -1.8731407799 -0.4989309142
H 1.4643421081 1.0812634568 0.3542678249
H 1.2323383925 0.4802422751 -1.2722527784
H -0.5737759593 -1.5800746658 0.1427242388
*
