! pbe def2-sv(p) def2/J RI DEFGRID1 loosescf d4 GCP(DFT/SV(P)) printgap
%output
    printlevel normal
end
* xyz 0 1
C -2.4782833788 -0.4667448512 -0.2277551292
C -1.035830403 -0.2039039472 0.2164327949
H -0.9420561492 -0.4192730284 1.2920709805
C -0.6251492722 1.2720708864 -0.0200238507
H -1.2372549015 1.7055818361 -0.8189574183
C 0.8483912017 1.3106984808 -0.4764338409
H 1.2446370773 2.3164494249 -0.3029674625
C 1.6665440398 0.2977511756 0.350887727
H 2.7085332222 0.325528442 0.0100220086
C 1.1161674183 -1.1350559567 0.0901612584
H 1.0501892429 -1.6703335632 1.0528964652
O -0.1692666117 -1.0748263267 -0.4985060553
O 1.9419500886 -1.8937749403 -0.7120324777
O 1.557132911 0.6613858559 1.7063485185
O 0.9806244159 1.0632986383 -1.8520383089
O -0.860521249 2.0636885713 1.1114743438
O -2.9818915359 -1.7053293667 0.1979780662
H -2.5154955327 -0.4932883039 -1.3181962165
H -3.0988122234 0.3608178534 0.1373818467
H 1.9411753603 -1.5471803844 -1.618063515
H 2.2793007801 0.2735194788 2.2197190179
H 0.444871672 0.2841924554 -2.0728181546
H -0.2070149991 1.8328756734 1.7928172916
H -3.041873521 -1.7199789504 1.1638400487
*
