! r2scan-3c def2/J RI DEFGRID2 scfconv6 printgap
%output
    printlevel normal
end
* xyz 0 1
C -2.8272578899 0.7709832226 0.7543599773
C -1.5249737105 0.5098979565 0.063794501
C -0.9128807586 1.4122953409 -0.6900919684
C 0.3928192588 1.2119728812 -1.3942821447
C 1.1460392377 -0.0348778556 -0.9219831971
H 1.8501387039 -0.3297358656 -1.7086965851
C 0.1384294441 -1.1787407481 -0.7494647816
C -0.9082696954 -0.8468826406 0.3167585322
H -0.4213687601 -0.8161706687 1.3089782507
O -1.9404132396 -1.8222290827 0.3399369266
C 1.9518995373 0.1727167214 0.341146127
C 1.663316895 1.0801612014 1.260424654
C 3.136126407 -0.7384285937 0.4812009304
H -3.556454923 0.0196368348 0.4574603501
H -3.2046156768 1.7597501181 0.5093827792
H -2.6971289029 0.6935790435 1.83335198
H -1.3754997901 2.3794182846 -0.8398192364
H 0.1909096657 1.1212269219 -2.4668541302
H 1.0196103188 2.096962926 -1.2612256695
H -0.3838265108 -1.3400596348 -1.6950853227
H 0.654655418 -2.1030990173 -0.4812880557
H -1.5487609525 -2.6875354141 0.5147241614
H 2.2644969907 1.1895724948 2.1479721501
H 0.819937272 1.7422419505 1.175216975
H 3.8646811342 -0.5243255441 -0.3000478088
H 3.6151390743 -0.6095102302 1.4476497535
H 2.8347216668 -1.7789230476 0.3750291791
*
