  19
        -26.29546181
 C         -2.6327240289        0.6060545663        0.7598941452
 C         -1.8479771513        0.5831526273       -0.5533768623
 C         -0.3811905994        0.3886646413       -0.2943208731
 C          0.4874892957        1.4651145323       -0.2190406469
 C          1.8345097389        1.2895869892        0.0507049096
 C          2.3302327801        0.0142963162        0.2495172668
 C          1.4813886197       -1.0762244802        0.1794273955
 C          0.1300286328       -0.8978100764       -0.0867435253
 O         -0.7304719134       -1.9528372304       -0.1583429569
 H         -3.6909521640        0.7606178847        0.5654322509
 H         -2.2731072693        1.4075299523        1.4015020609
 H         -2.5098257375       -0.3387224343        1.2836652874
 H         -2.0030441078        1.5221043735       -1.0873270362
 H         -2.2152732116       -0.2373399578       -1.1724742934
 H          0.0972297510        2.4598594596       -0.3779710027
 H          2.4917536394        2.1438548641        0.1035352440
 H          3.3781972776       -0.1374775388        0.4590985355
 H          1.8698271699       -2.0731070351        0.3341407998
 H         -0.2538384357       -2.7847266445       -0.0216527346
  19
        -26.29410046
 C         -2.6416872699        1.5093474809        0.1105547841
 C         -1.9526745099        0.1576662740       -0.0096668429
 C         -0.4481091630        0.1926778000        0.0127998372
 C          0.3031428287        1.3489730631        0.1331393186
 C          1.6893101971        1.3095669679        0.1470033265
 C          2.3463006460        0.0993618301        0.0394335565
 C          1.6168035292       -1.0712506805       -0.0819963261
 C          0.2307552389       -1.0296857020       -0.0956572818
 O         -0.5217666764       -2.1619262102       -0.2136731933
 H         -2.3608045198        2.1618284816       -0.7127504104
 H         -2.3834263957        1.9935953882        1.0493094708
 H         -3.7199735164        1.3718847196        0.0835928436
 H         -2.2616113073       -0.3300336812       -0.9393720985
 H         -2.2837636112       -0.4963022672        0.8029589276
 H         -0.1934958655        2.3018626805        0.2181097610
 H          2.2511195553        2.2262300605        0.2419580029
 H          3.4249230687        0.0589506279        0.0492973160
 H          2.1267581630       -2.0206570593       -0.1663852975
 H          0.0518009129       -2.9395937201       -0.2809434284
  19
        -26.29374498
 C         -2.6300356644        1.3509965997        0.5074018253
 C         -1.9368104995        0.2662783816       -0.3120791501
 C         -0.4413541774        0.2246986520       -0.1386513276
 C          0.3271027034        1.3709296081       -0.0092785326
 C          1.7023501925        1.3086007343        0.1423210427
 C          2.3352912265        0.0800617647        0.1650320257
 C          1.5914087682       -1.0785920795        0.0312173280
 C          0.2128526597       -1.0141286254       -0.1233544486
 O         -0.5382844324       -2.1453774000       -0.2637659805
 H         -2.3813171483        2.3438845593        0.1426765172
 H         -2.3377839087        1.2821518096        1.5527335506
 H         -3.7082510917        1.2283218101        0.4404360559
 H         -2.1628675978        0.4139392759       -1.3726807774
 H         -2.3354932321       -0.7102583548       -0.0307862765
 H         -0.1563510800        2.3348366521       -0.0281092205
 H          2.2752031503        2.2178252466        0.2418416489
 H          3.4062691194        0.0179170469        0.2843587270
 H          2.0836886230       -2.0409513150        0.0459069906
 H          0.0284783037       -2.9295027720       -0.2188282735
  19
        -26.29275371
 C         -2.6419853111        0.6160959318        0.7606822330
 C         -1.8466530232        0.6277919247       -0.5485954076
 C         -0.3816435730        0.3856352588       -0.2949960114
 C          0.4974768785        1.4571154894       -0.2138809115
 C          1.8418422485        1.2758017549        0.0548680669
 C          2.3327485223       -0.0037490492        0.2502172894
 C          1.4787533302       -1.0860379478        0.1748970782
 C          0.1257627864       -0.9014694109       -0.0921541786
 O         -0.6490971844       -2.0233358073       -0.1403720990
 H         -2.3022522825        1.4209773502        1.4082459174
 H         -2.5061417674       -0.3219773680        1.2942813385
 H         -3.7019172188        0.7543978341        0.5622785097
 H         -1.9654087255        1.6007830888       -1.0277798353
 H         -2.2509791727       -0.1208553491       -1.2355225148
 H          0.1137936321        2.4556482508       -0.3663075928
 H          2.5021971070        2.1273916496        0.1112435140
 H          3.3794168776       -0.1615621615        0.4606558102
 H          1.8346694852       -2.0937710623        0.3234810071
 H         -1.5583101021       -1.7996685356       -0.3871987948
  19
        -26.29108789
 C         -2.6156757167        1.5603689049        0.1135511233
 C         -1.9672868125        0.1863463940       -0.0092580442
 C         -0.4561616375        0.1806849678        0.0115621780
 C          0.3020146963        1.3355585535        0.1356068777
 C          1.6861467680        1.2975466258        0.1515507737
 C          2.3442654403        0.0864074450        0.0419978712
 C          1.6129517996       -1.0788460768       -0.0827363401
 C          0.2239131234       -1.0394312655       -0.0984793183
 O         -0.4200412118       -2.2374758420       -0.2248876101
 H         -2.3439679505        2.0358950031        1.0526299700
 H         -3.6975918645        1.4528224830        0.0875097954
 H         -2.3182616543        2.2053496849       -0.7094793162
 H         -2.3049336510       -0.2664652267       -0.9479623972
 H         -2.3298825655       -0.4360646202        0.8161908395
 H         -0.1907876456        2.2901162303        0.2222938241
 H          2.2468247700        2.2145278868        0.2495065974
 H          3.4225786106        0.0444913060        0.0531870993
 H          2.0957791511       -2.0398319606       -0.1702258151
 H         -1.3800711287       -2.1165472925       -0.2273943929
  19
        -26.28930276
 C         -2.8812765494       -0.0519969809        0.0102186835
 C         -1.7821242634        0.9991560890       -0.0722050280
 C         -0.3457251887        0.5278219877       -0.0418953173
 C          0.6291279239        1.5176058948       -0.1332196605
 C          1.9812705428        1.2357655348       -0.1172096559
 C          2.3960688279       -0.0793028787       -0.0066913006
 C          1.4516365849       -1.0815117275        0.0853541691
 C          0.0869673997       -0.7979708439        0.0697142636
 O         -0.8108685457       -1.8189166984        0.1635665617
 H         -2.8159388809       -0.6135616852        0.9375488165
 H         -2.8163554433       -0.7505705326       -0.8189617684
 H         -3.8508980179        0.4410161167       -0.0279897542
 H         -1.9106171698        1.7027555081        0.7567450478
 H         -1.9166883417        1.5712908825       -0.9958663200
 H          0.3034489704        2.5445078313       -0.2195399935
 H          2.7030526635        2.0345115467       -0.1901983940
 H          3.4465501469       -0.3262314118        0.0083281930
 H          1.7701457420       -2.1113635501        0.1720712825
 H         -0.3446160491       -2.6649852409        0.2354921971
