! r2scan-3c def2/J RI DEFGRID2 scfconv6 printgap
%output
    printlevel normal
end
%cpcm
    smd true
    smdsolvent "water"
end
* xyz 0 1
C 1.8571532327 0.0708302805 0.2587464613
C 0.5451360474 -0.165722958 -0.4706366325
O -0.525243173 0.1434762188 0.4057745682
C -1.7934450434 -0.0439655567 -0.178027507
H 1.9207002966 1.1085487152 0.5730919676
H 1.9063207049 -0.5611214923 1.1407271988
H 2.6897424868 -0.1596941888 -0.3981931069
H 0.4644189178 -1.2158224775 -0.7910218438
H 0.4802626633 0.4707361395 -1.3664922791
H -1.9200702601 0.5997938942 -1.0561192604
H -2.5228337177 0.2229707555 0.58246782
H -1.9362246216 -1.0882103959 -0.479162585
*
