! pbe def2-sv(p) def2/J RI DEFGRID1 loosescf d4 GCP(DFT/SV(P)) printgap
%output
    printlevel normal
end
* xyz 0 1
C -2.265240438 -0.952263743 0.7786978948
C -0.8101136606 -0.4454017074 0.7574012621
H -0.5256794186 -0.1558201482 1.7800534111
C -0.6263703859 0.7498626065 -0.1943508697
H -0.7684878512 0.3878300723 -1.2192881781
C 0.8080895424 1.2975987745 -0.0648473765
H 0.8254733846 2.061608256 0.7217872604
C 1.7907854472 0.1679886528 0.3368052309
H 2.7472949974 0.3598150976 -0.1664282727
C 1.2689870148 -1.1763990834 -0.1872365681
H 1.954022224 -1.9804768032 0.123533025
O 0.0260807137 -1.5286880877 0.3543017352
O 1.2200367503 -1.0740985101 -1.5806700971
O 1.9571100516 0.0572720242 1.7268832743
O 1.2350254027 1.9585119694 -1.2270455065
O -1.6136441243 1.7314686517 -0.005989352
O -2.9081594392 -0.9188473287 -0.468809717
H -2.8292812337 -0.3720677812 1.5168817881
H -2.2445894171 -1.9998166157 1.0847386632
H 0.9071825755 -1.9107476533 -1.9575291132
H 2.5435186288 0.7598544248 2.0440319395
H 1.2461368403 1.3277072911 -1.9628044934
H -1.4589512814 2.2066583881 0.8226961569
H -3.0501939286 0.0075426138 -0.7168042789
*
