  15
        -30.43349378
 C          0.0356086354       -1.2147056669       -0.0001037079
 C          1.4071201391       -1.2117788844       -0.0000098557
 C          2.1131143554        0.0011661008       -0.0000271874
 C          1.4086577668        1.2124038412       -0.0000207516
 C          0.0347330719        1.2129135271       -0.0000974608
 C         -0.6587012594       -0.0001025629       -0.0002165517
 N         -2.0662795012        0.0008200724       -0.0004282745
 O         -2.6592989874       -1.0736185060        0.0002610250
 O         -2.6575458620        1.0765570069        0.0002789003
 O          3.4442247959       -0.0565285430        0.0001686176
 H         -0.5245129581       -2.1363540210       -0.0000584744
 H          1.9683683017       -2.1314089062        0.0002309269
 H          1.9435101644        2.1491590448       -0.0000160133
 H         -0.5263641213        2.1342443577        0.0000981550
 H          3.8552447642        0.8248525066        0.0001161974
