! pbe def2-sv(p) def2/J RI DEFGRID1 loosescf d4 GCP(DFT/SV(P)) printgap
%output
    printlevel normal
end
* xyz 0 1
C -3.0538015868 0.5909464387 -0.6866160307
C -1.9460694494 0.5301553604 0.3669835967
H -2.4139243666 0.6889246451 1.3471144342
C -0.8594949272 1.5886535789 0.1518639002
C 0.1582321676 1.1169662219 -0.8835669292
C 0.8838830484 -0.1741286201 -0.4568762596
H 0.8824095283 -0.8659138711 -1.3046585694
C 0.1334599712 -0.872390787 0.7010016661
C -1.3434297787 -0.855335951 0.4371828188
O -1.999965677 -1.8696174913 0.2962231468
C 2.3240597824 0.0394722506 -0.0391417292
C 2.7109541438 1.0575812954 0.7129180445
C 3.2818918187 -1.009523904 -0.5141989438
H -3.7395985892 -0.2414187447 -0.5467835712
H -3.6061118979 1.5226331481 -0.6038977501
H -2.6339543374 0.5194387674 -1.6868903837
H -1.3255918017 2.5137323976 -0.1893500255
H -0.3550067135 1.8022458797 1.0943379035
H -0.3654192801 0.9354732205 -1.8236579996
H 0.8902268454 1.9038902515 -1.0656411447
H 0.4777798987 -1.9013145204 0.810336539
H 0.328740266 -0.3337840891 1.6288344421
H 3.7387510666 1.1793649385 1.0089726898
H 2.0290580966 1.8135477315 1.0606285802
H 4.277568794 -0.8419302723 -0.1137314748
H 2.940765734 -1.9973167049 -0.2077450324
H 3.3359021868 -1.0007068892 -1.6022125919
*
