! r2scan-3c def2/J RI DEFGRID2 scfconv6 printgap
%output
    printlevel normal
end
%cpcm
    smd true
    smdsolvent "water"
end
* xyz 0 1
C -2.8625361869 0.3976658291 -0.1064329876
N -1.8164418709 -0.5699232044 0.1261469135
C -0.4843485913 -0.2523006697 0.0353654219
C 0.4640162516 -1.2824422379 -0.0097313129
C 1.8134888388 -1.0027371861 -0.0385348323
C 2.2603011636 0.3098756223 -0.0278063995
C 1.3324057156 1.336318138 0.0127659125
C -0.0226612142 1.0676102769 0.0426293072
H -2.7945211223 0.8583021731 -1.0992224628
H -2.8119492847 1.1851431799 0.6464185311
H -3.8233894708 -0.1012618006 -0.0147670884
H -2.0400539761 -1.5172698863 -0.1353468292
H 0.1250225389 -2.3089645709 -0.0198628479
H 2.5257814398 -1.8146925818 -0.0733227939
H 3.3173406074 0.5278011282 -0.0529548044
H 1.667391215 2.363860171 0.0181450649
H -0.7227632285 1.887102216 0.0711711039
*
