! pbe def2-sv(p) def2/J RI DEFGRID1 loosescf d4 GCP(DFT/SV(P)) printgap
%output
    printlevel normal
end
* xyz 0 1
C -2.2021313181 -1.0406951857 -0.4168819532
C -1.1784026433 -0.2167889987 0.3788195476
H -1.6710815393 0.2011812459 1.2658762452
C -0.5950666674 0.9417217154 -0.443237744
H -0.4239159235 0.6218520678 -1.4812839822
C 0.7550776742 1.3306346607 0.1724421631
H 0.6133461256 1.4938406396 1.2527507544
C 1.7375344293 0.1745856689 -0.0321440627
H 2.0921078375 0.2126563296 -1.0728703427
C 1.0288529122 -1.1792878381 0.1674237394
H 1.6769926033 -1.7948495512 0.8048737106
O -0.1631344233 -1.0787897979 0.9034237912
O 0.8282386968 -1.7551711393 -1.0866022719
O 2.8173114635 0.2309528991 0.8617599774
O 1.2954435174 2.4791668946 -0.4269355484
O -1.4120409195 2.0856572818 -0.398422093
O -2.8833430129 -1.9582146541 0.4024983846
H -1.6869409186 -1.5577215489 -1.236917074
H -2.969554873 -0.386010813 -0.8334460933
H 0.7151597726 -2.7145988291 -1.0078475919
H 3.2680561008 1.0817120763 0.7495951512
H 0.5953086797 3.1491330656 -0.4742020585
H -2.2250806798 1.9422777425 -0.9004844788
H -2.2313391641 -2.4278370709 0.943129957
*
