! r2scan-3c def2/J RI DEFGRID2 scfconv6 printgap
%output
    printlevel normal
end
* xyz 0 1
C 3.2687333053 1.0721984141 -0.0060215513
N 2.2771204871 0.0331933444 0.0011171173
C 2.4740099782 -1.2925651179 0.0043635962
N 1.3567792707 -1.9972121907 0.0037641361
C 0.3753081365 -1.0717846045 -0.0002805671
C 0.9135129267 0.2117088496 -0.001949304
C 0.0971560208 1.3793949457 -0.0001227332
O 0.4810080329 2.5445339641 0.0017875244
N -1.259037817 1.054861188 0.0007899742
C -1.8174538162 -0.2147958027 -0.0007523702
O -3.0325119211 -0.3544890435 -0.0003803239
N -0.9676281647 -1.2878522815 0.000552449
C -1.48674709 -2.6421693054 -0.0042697966
C -2.2179993894 2.1507843774 0.0022199844
H 3.1810221411 1.6624152535 -0.9184163823
H 3.109432507 1.7392669061 0.8409266406
H 4.2558839013 0.6220266775 0.0524643059
H 3.4464045116 -1.7416993943 0.0074271738
H -1.237080325 -3.1264294984 -0.9466584014
H -2.5660342524 -2.5865558761 0.1151283104
H -1.0358376342 -3.1986844309 0.8140345745
H -2.8580994212 2.0754297162 0.8797406836
H -2.8404266175 2.0944194998 -0.8894685701
H -1.6535807222 3.0795877673 0.017180337
*
