! pbe def2-sv(p) def2/J RI DEFGRID1 loosescf d4 GCP(DFT/SV(P)) printgap
%output
    printlevel normal
end
* xyz 0 1
C -2.3739640171 -0.7678681685 -0.1077601413
C -1.0099319503 -0.2687587737 0.3951049791
H -1.1332169284 0.1196952125 1.4170775427
C -0.5109238595 0.8796793442 -0.4860151424
H -0.4660058905 0.5304182964 -1.5288424401
C 0.8995780599 1.3350717637 -0.0592826166
H 0.803101729 2.0282703498 0.7847250827
C 1.7791955717 0.1480641329 0.4039219579
H 2.7805040595 0.2765698737 -0.0189418962
C 1.1819845478 -1.1733105271 -0.0966153708
H 1.7670370939 -2.0130993196 0.3056749635
O -0.1011128315 -1.3715786141 0.4421703617
O 1.1992942412 -1.1668125704 -1.489303719
O 1.9498910164 0.1113701378 1.7967556553
O 1.5078064319 2.0774798403 -1.0865590441
O -1.4388358575 1.931287292 -0.3696368908
O -2.9697028501 -1.7167228053 0.7368334178
H -2.2420962688 -1.2705238542 -1.06765806
H -3.0201950153 0.1075856343 -0.243330601
H 0.9724359976 -2.0444830636 -1.8324071344
H 1.1723557996 -0.2912993392 2.2109462974
H 1.673148777 1.4972900325 -1.844861211
H -1.0988003169 2.6994188883 -0.852808206
H -3.1412381372 -1.3190453943 1.6019414691
*
