! wb97x-v def2-tzvp def2/J RIJCOSX DEFGRID2 scfconv7 GCP(DFT/TZ) printgap
%output
    printlevel normal
end
* xyz 0 1
C -1.7124858992800112 -0.5854607501421295 -0.6420973961065176
C -1.2080265431599997 0.05732012879087822 0.6427732571713536
C 0.04800192829402375 0.9210458993934845 0.4239595697187069
C 1.1701967149894015 0.14054895946685012 -0.0580027916381982
N 2.0562503012506856 -0.5054778960405746 -0.43310083918620973
H -2.61810755063449 -1.1686603834429574 -0.451519789227453
H -1.9508675169667127 0.17441815080283998 -1.3940107974306344
H -0.9643842659426046 -1.262216016523914 -1.0696990369110453
H -1.9744580201480346 0.7146242236286303 1.0646934681649667
H -0.9868701281350984 -0.707996142218513 1.3936759159269156
H 0.3567365237395159 1.4052550356015026 1.3567251590891527
H -0.15037374030789497 1.7114353552137438 -0.30926275740828885
*
