  16
        -17.89145535
 C          1.7138536398        0.9430905663       -0.0013400052
 C          0.7132479359       -0.1778215217        0.0001215376
 C          1.1331093353       -1.4424774737        0.0013535244
 C         -0.7132473222        0.1778509116        0.0001155507
 C         -1.1331247623        1.4424597988        0.0013856911
 C         -1.7138355285       -0.9430905251       -0.0013372056
 H          1.5851035652        1.5678268591       -0.8832382938
 H          2.7251984576        0.5459316539       -0.0030477962
 H          1.5879940151        1.5672886264        0.8813487458
 H          0.4671158749       -2.2857432652        0.0021530672
 H          2.1841899967       -1.6784150235        0.0011480412
 H         -2.1842125848        1.6783595367        0.0009888379
 H         -0.4671680387        2.2857220648        0.0020392141
 H         -1.5856246364       -1.5673557621       -0.8836645092
 H         -1.5874451206       -1.5677784364        0.8809366210
 H         -2.7251908319       -0.5459763507       -0.0022281774
  16
        -17.89091883
 C          1.4756628927        0.1268416752        1.1664493275
 C          0.7220012060       -0.1523968634       -0.1008598082
 C          1.3239211779       -0.6664325583       -1.1682954370
 C         -0.7220102127        0.1523756337       -0.1008509262
 C         -1.3239324892        0.6664140996       -1.1682751802
 C         -1.4756550736       -0.1268372243        1.1664798630
 H          1.2964992351        1.1489593809        1.4956559724
 H          2.5423151634       -0.0110325665        1.0115118641
 H          1.1518198851       -0.5455798162        1.9587908175
 H          0.7839140847       -0.9001911534       -2.0694991778
 H          2.3786543258       -0.8845368168       -1.1730576639
 H         -2.3785933988        0.8848198001       -1.1729652866
 H         -0.7838684027        0.9003179731       -2.0693984172
 H         -1.2964837602       -1.1489448645        1.4956963174
 H         -1.1517927537        0.5455730218        1.9588209664
 H         -2.5423154317        0.0110349619        1.0115969104
  16
        -17.88941402
 C          1.4018052919       -0.2687400237       -1.2247005389
 C          0.7236246777       -0.1409663921        0.1097531062
 C          1.4402963064       -0.2851025023        1.2240203730
 C         -0.7236431854        0.1409455278        0.1097593933
 C         -1.4407370719        0.2828058057        1.2240308004
 C         -1.4013716142        0.2709516960       -1.2247065504
 H          1.2961605438        0.6481327243       -1.8010301112
 H          0.9669158792       -1.0821750451       -1.8020443769
 H          2.4610925729       -0.4705670218       -1.0906387119
 H          1.0191191595       -0.2075246564        2.2098193647
 H          2.4964549962       -0.4906923914        1.1840042008
 H         -2.4969360962        0.4881791427        1.1840503133
 H         -1.0199384808        0.2030347481        2.2098230567
 H         -2.4605272683        0.4734821660       -1.0906773080
 H         -0.9657121651        1.0847361670       -1.8009383976
 H         -1.2963241231       -0.6453439744       -1.8021088037
  16
        -17.88885204
 C          1.5686001168        0.5782644870       -0.8968606771
 C          0.7220696016       -0.1773304284        0.0824805440
 C          1.2046460855       -1.1045239674        0.8941595219
 C         -0.7219471660        0.1774656986        0.0825314676
 C         -1.2048672137        1.1044632723        0.8941704600
 C         -1.5684553298       -0.5783048494       -0.8968837154
 H          2.6078593865        0.2681666471       -0.8315180783
 H          1.5000547241        1.6462897700       -0.6947562383
 H          1.2117940334        0.4105906134       -1.9118809970
 H          0.5727468792       -1.6301093381        1.5903371304
 H          2.2482381792       -1.3716984525        0.8968032408
 H         -2.2486069586        1.3711859880        0.8965389696
 H         -0.5735107674        1.6302201316        1.5907259560
 H         -2.6074319827       -0.2669882815       -0.8327755236
 H         -1.2104576286       -0.4118933194       -1.9117051739
 H         -1.5012351661       -1.6461714660       -0.6936710482
