! pbe def2-sv(p) def2/J RI DEFGRID1 loosescf d4 GCP(DFT/SV(P)) printgap
%output
    printlevel normal
end
* xyz 0 1
C -1.3683795923 -0.0018570472 0.3894680279
C -0.7669338052 1.2553863371 -0.2388017634
C 0.7809583047 1.1962659796 -0.1929139658
N 1.3079650349 0.002253121 0.4430217885
C 0.783595802 -1.2015426067 -0.176741811
C -0.7637085936 -1.2505814173 -0.2516229909
H -2.4509532797 -0.0022094312 0.2525831934
H -1.1763811034 -0.0077286113 1.4655503043
H -1.1029660972 1.3272675282 -1.2742783213
H -1.1298639533 2.1375460056 0.2902168025
H 1.1847796277 1.2143032456 -1.209566104
H 1.1840334791 2.0588178018 0.3407277802
H 1.0638389464 0.0093710687 1.4282583292
H 1.2063571068 -1.2453638969 -1.1849738789
H 1.1701248957 -2.0548144491 0.383296086
H -1.0823610251 -1.3000748603 -1.2939117306
H -1.1406239703 -2.1406743967 0.2536835005
*
