  16
        -29.80506567
 C         -1.4206273963       -1.2152475398        0.0000003537
 C         -0.0553109906       -1.2158646242        0.0000067019
 C          0.6488463895        0.0000002813        0.0000010813
 C         -0.0553101968        1.2158652776        0.0000071293
 C         -1.4206275194        1.2152474584        0.0000164882
 C         -2.1437775982        0.0000000724        0.0000257428
 N         -3.4793417881       -0.0000003009       -0.0000180832
 N          2.0369618284       -0.0000001927       -0.0000034464
 O          2.6430214516        1.0793078178       -0.0000301654
 O          2.6430220049       -1.0793082655        0.0000227079
 H         -1.9602463693       -2.1485776130       -0.0001622383
 H          0.5095476844       -2.1350783928       -0.0000897033
 H          0.5095497584        2.1350821416        0.0000040143
 H         -1.9602470759        2.1485777071        0.0000625987
 H         -3.9866917268       -0.8680911416       -0.0000312363
 H         -3.9866918168        0.8680902336       -0.0000510171
