! pbe def2-sv(p) def2/J RI DEFGRID1 loosescf d4 GCP(DFT/SV(P)) printgap
%output
    printlevel normal
end
* xyz 0 1
C -2.2129995508 -1.2165694103 0.084839989
C -0.8605619015 -0.5782607952 0.4208150026
H -0.8275511384 -0.3393769969 1.4942390204
C -0.6248790545 0.7139675136 -0.3675264402
H -0.7049703903 0.4725777122 -1.4425999557
C 0.79147971 1.2694757813 -0.0960930927
H 0.6913301724 2.0768462663 0.6409686845
C 1.730779006 0.2092730706 0.5038336551
H 2.757071923 0.4977961173 0.2342076561
C 1.4283609092 -1.1444319557 -0.1544354675
H 2.0626246955 -1.9440452448 0.2521425054
O 0.1111705742 -1.5743057205 0.1176502932
O 1.6922181867 -1.1091336212 -1.5222929382
O 1.5548160432 0.1863207002 1.8947133055
O 1.3948437899 1.7287206018 -1.2844189098
O -1.5438397286 1.7247178489 -0.035136681
O -3.2513599414 -0.3722439946 0.5270914485
H -2.246417547 -2.1911523725 0.5828028042
H -2.2661807848 -1.374733684 -1.0000175275
H 1.5615579852 -0.2095291079 -1.8735823769
H 2.2220295497 -0.3832509112 2.3044735972
H 0.9257100119 2.5137620049 -1.602313499
H -2.4076724474 1.3165105396 0.1526777205
H -4.1036084922 -0.8105417724 0.392535397
*
