! pbe def2-sv(p) def2/J RI DEFGRID1 loosescf d4 GCP(DFT/SV(P)) printgap
%output
    printlevel normal
end
* xyz 0 1
C 1.2545223244 1.4599834441 -0.2320964604
C 0.7168812035 0.045624804 -0.4251362249
C 1.5184602345 -0.9609025935 0.4112659142
C -0.7380232427 -0.0548483385 -0.0113226687
O -1.280812219 0.7917978218 0.6716908493
C -1.4710566759 -1.281969502 -0.4771586662
H 1.1506679054 1.7595559992 0.8083372162
H 2.3032519623 1.5082546402 -0.5112116833
H 0.6939404319 2.1652514541 -0.8414053564
H 0.7892925576 -0.2351462225 -1.4802703115
H 1.15748741 -1.9742603441 0.261926521
H 1.4365521296 -0.7138288495 1.4674523684
H 2.5661286132 -0.918134997 0.1266124267
H -0.8485934739 -1.9236309918 -1.0899126284
H -2.3465207167 -0.9683005728 -1.0422441925
H -1.833517196 -1.8292676122 0.3906110929
*
