! r2scan-3c def2/J RI DEFGRID2 scfconv6 printgap
%output
    printlevel normal
end
%cpcm
    smd true
    smdsolvent "water"
end
* xyz 0 1
C -2.6697768886 -1.4345429364 -0.0744594386
C -1.9577864409 -0.0901148021 0.012438071
C -0.4520567349 -0.1413758599 -0.0057037826
C 0.2480888494 -1.3363963073 -0.0965762464
C 1.6325096422 -1.3596921381 -0.1111780409
C 2.3420556922 -0.1763683768 -0.0342608907
C 1.6556942797 1.0216677645 0.0561981298
C 0.2686435176 1.0582370807 0.0716125587
C -0.4379508468 2.3763424725 0.1701056253
H -3.7457490266 -1.2765852721 -0.0520490592
H -2.4035171465 -2.0720392389 0.7654261873
H -2.4221472539 -1.9479226187 -1.0006161484
H -2.2720469642 0.4141576777 0.9313113369
H -2.2893359866 0.5368909049 -0.8208255766
H -0.2847900896 -2.2717037904 -0.157631073
H 2.1532299486 -2.3034404786 -0.1824031884
H 3.4220332656 -0.1836035163 -0.0444554403
H 2.2087622343 1.9485729817 0.1166105927
H 0.2794506877 3.1910047264 0.2219433072
H -1.0800590046 2.5341918875 -0.6953919792
H -1.0665514407 2.410556019 1.0589861297
*
