! wb97x-v def2-tzvp def2/J RIJCOSX DEFGRID2 scfconv7 GCP(DFT/TZ) printgap
%output
    printlevel normal
end
%cpcm
    smd true
    smdsolvent "water"
end
* xyz 0 1
C 1.954219577858571 -3.347318510224598e-05 -0.7661972519434705
C 1.1195705264383902 -5.615754223342258e-05 0.5164853296717313
C 0.24232592006418197 1.2582657220190945 0.6360359968115987
C -0.9211629891597469 1.262058114276403 -0.3598555537464869
C -1.7743983758013084 1.4937595448208745e-05 -0.21153761696032125
C -0.921213839157096 -1.2620549584168637 -0.3599144468004013
C 0.2422722472375625 -1.258348759682778 0.6359803083606204
H 2.598289842543802 0.8854345719129448 -0.8099338613382929
H 2.5984632977204303 -0.885375573532625 -0.8098672403876461
H 1.3327560185525862 -0.00011965827500808725 -1.6668339242226313
H 1.821875558994547 -9.367045962129301e-05 1.3611940731562766
H -0.17018251816379246 1.3025749264675295 1.653690219115124
H 0.8599531378219737 2.155387138356429 0.5027853385091718
H -1.5366458101226337 2.156492402537075 -0.20623665481000272
H -0.5355224756387028 1.3193988255367597 -1.3862418917660777
H -2.2441018018862953 1.0707944356274166e-06 0.7828926169679428
H -2.5866481447946272 5.011757069668218e-05 -0.9483052794664883
H -1.5367302938255096 -2.156471180693629 -0.20633575644266636
H -0.535581236838193 -1.3193652894457852 -1.3863038381883572
H -0.17025196147798077 -1.3026640839372021 1.6536297960353867
H 0.8598547965615992 -2.1554997845559876 0.5027162303694734
*
