! wb97x-v def2-tzvp def2/J RIJCOSX DEFGRID2 scfconv7 GCP(DFT/TZ) printgap
%output
    printlevel normal
end
%cpcm
    smd true
    smdsolvent "water"
end
* xyz 0 1
C -1.9322425040062168 -0.28125218493476395 0.5273151613440282
C -1.1661185860391692 -0.09322052220641816 -0.7788370172333604
C 0.10351465123613512 0.7358545181406566 -0.6385055839932701
S 1.3147650288267267 -0.11393518035533708 0.4894292040980518
H -2.882951468571645 -0.7928334589076386 0.34828786623205205
H -1.3657662266964077 -0.8812230370516104 1.247281577199394
H -2.150314943387786 0.6859529637343884 0.9940454012111242
H -1.8037030828860525 0.42811448183150197 -1.503606093362813
H -0.9234447301094443 -1.0680514144540367 -1.2188629468289698
H 0.5846302355093175 0.8657859062622785 -1.6109660084839301
H -0.126171282170349 1.7210404136517714 -0.22145341517227127
H 2.345970456312286 0.716959992495815 0.2528069778585708
*
