! pbe def2-sv(p) def2/J RI DEFGRID1 loosescf d4 GCP(DFT/SV(P)) printgap
%output
    printlevel normal
end
* xyz 0 1
C -3.8145291916 -0.6764661445 0.0130228964
N -2.6782306484 0.2260843243 -0.0036033611
C -2.8997124338 1.6578844869 -0.0123268666
C -1.4510260507 -0.3527231843 0.001171186
O -1.3321644636 -1.5794377759 0.0131166277
N -0.3896711455 0.5177061301 -0.0096293397
C 0.9767134705 0.2368638527 -0.005203331
C 1.4988460118 -1.0534183738 0.0075951463
C 2.8688156978 -1.2445688059 0.0123869654
C 3.7358552586 -0.1655412118 0.004355996
C 3.2202028667 1.1201970322 -0.0088618829
C 1.8543339346 1.3223740934 -0.0136622092
H -3.7771443599 -1.340924711 -0.8525154466
H -4.7359103173 -0.1053799028 -0.0047423618
H -3.7857954168 -1.3005592189 0.9086050668
H -2.4792338251 2.1287968771 0.8794359019
H -3.9699179116 1.8417968882 -0.0147658633
H -2.4774522098 2.117297808 -0.9091322541
H -0.6042608643 1.5038827259 -0.0188168276
H 0.8278017203 -1.896453717 0.0140606493
H 3.2581832485 -2.2516412481 0.0225092963
H 4.8030532633 -0.3247524028 0.0083301942
H 3.8854382923 1.9703614561 -0.0153520772
H 1.4603707501 2.3281731602 -0.0237972145
*
