  12
        -20.67812283
 C         -0.1411653483       -1.2032777484        0.0000114737
 C         -1.5254522332       -1.1369395475       -0.0000236025
 N         -2.2034242810       -0.0000297956       -0.0000269562
 C         -1.5254988168        1.1369088384       -0.0000116518
 C         -0.1412130922        1.2033023741        0.0000208035
 C          0.5664468716        0.0000246982        0.0001214921
 C          1.9813395224        0.0000506814        0.0000253128
 N          3.1285211761       -0.0000289372       -0.0000647164
 H          0.3762098197       -2.1489365857       -0.0001281407
 H         -2.1235533904       -2.0371579165       -0.0000226415
 H         -2.1236358207        2.0371031632       -0.0000371373
 H          0.3761241836        2.1489817687       -0.0002520349
