! wb97x-v def2-tzvp def2/J RIJCOSX DEFGRID2 scfconv7 GCP(DFT/TZ) printgap
%output
    printlevel normal
end
%cpcm
    smd true
    smdsolvent "water"
end
* xyz 0 1
C -1.9615528945721994 0.4920728262158704 0.06345863043462811
C -0.8986919354119652 -0.5834337172446233 -0.1226942466866923
C 0.5510113347541362 -0.16504687436039805 -0.023930835925636464
O 1.4589501350280647 -1.0036320045898444 -0.18353386102590555
N 0.8184119075165921 1.12403571930301 0.24256122037988898
H -2.9563168921771905 0.05012672378062222 -0.04118541172235429
H -1.908901636228335 0.9475048235323918 1.0580533998284665
H -1.8734808072083713 1.2838424615446913 -0.6879417087599088
H -1.004184774921713 -1.0643028450399035 -1.102461788406403
H -1.028078209021906 -1.3836534347453149 0.6161394055250489
H 0.08541837583218737 1.8019912328146956 0.37646676505285803
H 1.7795481283787737 1.4236346305780263 0.3162144001456233
*
