! pbe def2-sv(p) def2/J RI DEFGRID1 loosescf d4 GCP(DFT/SV(P)) printgap
%output
    printlevel normal
end
* xyz 0 1
C -2.0731726708 -1.2429150725 -0.1890269755
C -1.2445387231 -0.364254546 0.7631697955
H -1.8337953456 -0.2116574821 1.673944746
C -0.9353650908 1.0283025061 0.1510735198
H -1.2194093503 1.0279612804 -0.9115958059
C 0.5705169244 1.2929635594 0.2369942347
H 0.8549346062 1.390849995 1.2900761971
C 1.3216469787 0.107846926 -0.3884840591
H 0.9834003027 -0.0176633344 -1.4319065831
C 1.0078883118 -1.1863553584 0.3896426696
H 1.8550554469 -1.4134101839 1.0468917479
O -0.0850922941 -1.0207608663 1.263760308
O 0.8624798525 -2.2876174587 -0.4396512124
O 2.709003352 0.3244041096 -0.369750802
O 0.9609922164 2.4944945821 -0.374471403
O -1.5963678676 2.0637674202 0.8365877712
O -1.4796383183 -1.2836610262 -1.4758383055
H -3.0800526245 -0.818990571 -0.2542531702
H -2.1285540062 -2.2484033913 0.2426420476
H 0.1227159304 -2.1120541759 -1.0602459364
H 2.8645522748 1.2747159767 -0.508691421
H 0.5445772806 2.5728836681 -1.2461451868
H -2.5427953399 2.049687785 0.6363072536
H -2.0660639639 -1.7646819825 -2.0780206156
*
