  15
        -26.15973442
 C         -0.4213952169       -1.0415041685        0.0000494809
 C          0.9438014160       -1.2073084876        0.0000254514
 C          1.7826958786       -0.0895510819       -0.0001005711
 C          1.2250251957        1.1941661612       -0.0000177446
 C         -0.1394972612        1.3549425143        0.0000076659
 C         -0.9860906976        0.2395143673       -0.0000495340
 C         -2.4248502521        0.4065340671       -0.0000289396
 O         -3.2479785293       -0.4921285585        0.0000079600
 O          3.1212635393       -0.1911175179        0.0000299024
 H         -1.0855908596       -1.8927362182        0.0001463176
 H          1.3672679818       -2.2003365185        0.0000304396
 H          1.8916816376        2.0413406361        0.0003507757
 H         -0.5675956137        2.3456229174        0.0003967824
 H         -2.7640161816        1.4596516089       -0.0000196730
 H          3.4116729327       -1.1177791392       -0.0001449320
  15
        -26.15957967
 C         -0.4110365961       -1.0471969444        0.0000828986
 C          0.9534389581       -1.1987540759        0.0000375375
 C          1.7837411306       -0.0718988034       -0.0000370047
 C          1.2158413519        1.2049281610       -0.0000098078
 C         -0.1526491429        1.3519818807        0.0000027151
 C         -0.9879508181        0.2303815449       -0.0000198908
 C         -2.4279927706        0.3860992940        0.0000131746
 O         -3.2444917404       -0.5183883753       -0.0000299977
 O          3.1111635012       -0.2712747658       -0.0000067054
 H         -1.0667882231       -1.9046675493        0.0001346497
 H          1.4118172583       -2.1744629120       -0.0001532791
 H          1.8529963399        2.0766468574       -0.0002737545
 H         -0.5905300646        2.3386312598        0.0001058145
 H         -2.7756390662        1.4366550564       -0.0001515253
 H          3.6015732903        0.5670795252        0.0000910685
