! r2scan-3c def2/J RI DEFGRID2 scfconv6 printgap
%output
    printlevel normal
end
%cpcm
    smd true
    smdsolvent "water"
end
* xyz 0 1
C -1.85661939 -2.1737668913 -0.0001102042
C -1.3904513009 -0.7491505582 -3.67251e-05
C -2.3019886265 0.2757667202 3.4644e-06
C -1.8993999278 1.6190350863 5.81661e-05
C -0.5722127433 1.9381395932 1.24652e-05
C 0.4051304866 0.9208632895 3.0351e-06
C -0.0022553424 -0.4406581493 4.64061e-05
C 0.9992556246 -1.4360389819 0.0001319965
C 2.3259311832 -1.1048467824 7.1723e-05
C 2.7239852242 0.2399731221 -9.2343e-05
C 1.781858368 1.2292060358 -9.0992e-05
H -2.9425861855 -2.2149966817 -0.0007533481
H -1.4904885319 -2.6971146707 -0.881965755
H -1.4915419724 -2.6968054917 0.8823343398
H -3.3588846437 0.049853025 9.67203e-05
H -2.6502169607 2.3954349581 0.0001902156
H -0.2496348 2.9692858545 1.45318e-05
H 0.7120090029 -2.4755292178 0.0002090816
H 3.0782971047 -1.8798041439 0.0001250069
H 3.7758211631 0.4847355962 -0.0001096784
H 2.0761520688 2.2691539326 -0.0001052721
*
