! pbe def2-sv(p) def2/J RI DEFGRID1 loosescf d4 GCP(DFT/SV(P)) printgap
%output
    printlevel normal
end
* xyz 0 1
C -2.3617473581 -1.0029977082 0.3397016276
C -1.0973857336 -0.2503636902 0.7982874839
H -1.3310999544 0.2116091467 1.7654779444
C -0.6773012 0.8705381804 -0.1564974525
H -0.6737532566 0.521244299 -1.2008702132
C 0.7572423514 1.2834577541 0.1958106597
H 0.8192107996 1.4864724231 1.2753428957
C 1.7102953078 0.1224446834 -0.1224534475
H 1.9714452793 0.169556765 -1.1897935838
C 0.9858309686 -1.2296593696 0.0983487648
H 1.6932994293 -1.9558605995 0.5343748303
O -0.027991864 -1.1614438415 1.0569693452
O 0.5420534662 -1.6804816516 -1.14685893
O 2.8473840644 0.2781473717 0.6873147139
O 1.0586509194 2.4406708178 -0.5435426485
O -1.5830859906 1.9313175096 -0.0050868078
O -2.219723687 -1.6707926917 -0.8933690311
H -3.1875257337 -0.2876978165 0.3148998447
H -2.5732562764 -1.7791220634 1.0785690037
H -0.3125712077 -2.1469286715 -1.043045577
H 3.5238622532 -0.3697570034 0.4444466967
H 1.941043245 2.7537349137 -0.3011415008
H -1.1788310585 2.7233930192 -0.3941621896
H -2.3506373602 -1.0462233359 -1.6198356403
*
