! pbe def2-sv(p) def2/J RI DEFGRID1 loosescf d4 GCP(DFT/SV(P)) printgap
%output
    printlevel normal
end
* xyz 0 1
C -2.2809617324 -0.9563310113 -0.3116839026
C -1.1328862163 -0.2358102171 0.407999664
H -1.5257242848 0.1974679508 1.3371795089
C -0.5494000981 0.8834002987 -0.4665110147
H -0.3777689304 0.5005302112 -1.4800746423
C 0.7924504833 1.319110563 0.1439714122
H 0.665145278 1.5406393788 1.2104901486
C 1.7929962287 0.1546377464 0.0319812021
H 2.2836279665 0.2081294291 -0.9491195157
C 1.056711659 -1.2076834852 0.0875231928
H 1.6770618916 -1.9149447243 0.6570531502
O -0.1363167198 -1.1738345592 0.8245443937
O 0.8668586444 -1.638786226 -1.2263695109
O 2.723108804 0.2858467221 1.075437572
O 1.2788973066 2.5050075287 -0.4206638056
O -1.4483939136 1.9458073366 -0.6195867806
O -3.006531139 -1.7987492046 0.5481526105
H -1.8770724061 -1.5214765616 -1.1615665396
H -2.9844349487 -0.209433701 -0.6848323036
H 0.6169372932 -2.5752201299 -1.2448297274
H 3.5267230393 -0.217235411 0.8810282536
H 1.2959676724 2.4293049797 -1.3861272405
H -1.4985726303 2.4589508414 0.200262264
H -2.3824962035 -2.3770254739 1.010936992
*
