! pbe def2-sv(p) def2/J RI DEFGRID1 loosescf d4 GCP(DFT/SV(P)) printgap
%output
    printlevel normal
end
* xyz 0 1
C 3.364096085 -0.0414510608 0.1588321123
N 1.9429194062 -0.2808687354 0.285168478
C 1.5842696716 -1.4008723923 1.1233289491
C 1.0643258768 0.4995442949 -0.3538480134
O 1.4078578743 1.4420793936 -1.0752334707
C -0.3899082365 0.1904481534 -0.1634951907
C -1.0648075128 -0.5763221901 -1.1055616423
C -2.4236986541 -0.8024816406 -0.9695081406
C -3.1153421361 -0.2581745703 0.0998374454
C -2.4472674528 0.5166010919 1.0336869479
C -1.0880116156 0.7432412056 0.9039800101
H 3.5101239003 0.8225164479 -0.4863432805
H 3.8519283091 -0.9118950279 -0.2810105318
H 3.7968457221 0.1570457335 1.1397402371
H 2.0460554071 -2.3095763752 0.7338898045
H 0.5061857642 -1.5286777463 1.1451941012
H 1.9476633675 -1.2309956021 2.138178913
H -0.5215973605 -0.9906109975 -1.9420314164
H -2.9419427377 -1.4020511753 -1.7019928058
H -4.1751338352 -0.4334516809 0.2027031172
H -2.9847391178 0.9475375945 1.8643549215
H -0.5636789734 1.3515037095 1.6260425669
*
