! pbe def2-sv(p) def2/J RI DEFGRID1 loosescf d4 GCP(DFT/SV(P)) printgap
%output
    printlevel normal
end
* xyz 0 1
C -2.5504604275 -0.884688772 0.3457778625
C -1.1185439712 -0.4190009093 0.6527458208
H -0.9844531819 -0.3302913873 1.7424634073
C -0.8283258465 0.9428800234 -0.0095586195
H -1.0533392271 0.8537082398 -1.0791406381
C 0.6512643003 1.2916204457 0.1894052996
H 0.8505087423 1.4327671744 1.2606783417
C 1.5542782151 0.1472513949 -0.3046887783
H 1.4651297657 0.0365239559 -1.3964948237
C 1.1215465635 -1.1808159595 0.3315244661
H 1.3455030585 -1.130036014 1.4171704957
O -0.2558103423 -1.4214438097 0.1458144155
O 1.8067221395 -2.2054122138 -0.281299205
O 2.8889668536 0.3819424016 0.0593393543
O 1.0182843328 2.5091224897 -0.4107396845
O -1.6792935016 1.9504124601 0.4663961644
O -2.7338085363 -1.1484051627 -1.0195160066
H -3.2470828841 -0.0853387159 0.6034398391
H -2.7709654877 -1.7760443644 0.9452747934
H 1.508245022 -3.0600727212 0.0688183769
H 3.1180510315 1.2899738429 -0.1986308828
H 0.6472611916 2.5657875788 -1.3030857577
H -1.440337676 2.1898822057 1.3736257198
H -2.0822166004 -1.8134728523 -1.2873528191
*
