! pbe def2-sv(p) def2/J RI DEFGRID1 loosescf d4 GCP(DFT/SV(P)) printgap
%output
    printlevel normal
end
* xyz 0 1
C -4.3675168728 -1.3576739828 -0.3187249271
N -3.3390004434 -0.6818171108 0.4395726353
C -2.2033880097 -0.2388149784 -0.1057267543
O -1.8737643427 -0.3553403212 -1.2718362173
O -1.4417574136 0.382931852 0.8357046565
C -0.1922259892 0.8763409919 0.4366940369
C -0.0412681233 2.2279824486 0.284907011
C 1.2067322188 2.7586699379 -0.0719791091
C 2.2732147666 1.9316739926 -0.2830551374
C 2.1441588325 0.5348274158 -0.1349970757
C 0.8891627941 -0.016152733 0.2393025587
C 0.773688601 -1.411703866 0.4034151379
C 1.8480909571 -2.2292454969 0.1898460543
C 3.0862087303 -1.6895927952 -0.1906075453
C 3.2311564472 -0.339497524 -0.3456951209
H -5.2936405589 -0.7846166382 -0.2940039624
H -4.5423155987 -2.3522071176 0.0897369847
H -4.0212473338 -1.4428769785 -1.3468330104
H -3.4942880433 -0.5028503361 1.4201740357
H -0.8887527796 2.8769660185 0.4417387358
H 1.3069781071 3.8265079548 -0.1854271784
H 3.2333053485 2.3345409104 -0.567513393
H -0.1785616579 -1.8273370929 0.6993388022
H 1.748609291 -3.2966455018 0.3148048622
H 3.9225464158 -2.3512302085 -0.3564381434
H 4.1825983884 0.0821896228 -0.6330848818
*
