! r2scan-3c def2/J RI DEFGRID2 scfconv6 printgap
%output
    printlevel normal
end
* xyz 0 1
C -2.3824344577 -4.922e-05 0.0055460072
N -0.9666782365 2.33995e-05 -0.2925891059
C -0.3140628991 1.1935512618 0.2182032229
C 1.1412754875 1.2399727804 -0.2362441023
C 1.880990801 -4.23938e-05 0.2534206887
C 1.1412905589 -1.2399587563 -0.2363225361
C -0.3140063093 -1.1935095514 0.2182681322
H -2.8389077934 -0.8851592432 -0.4342583465
H -2.8389363804 0.8849857241 -0.434388193
H -2.5887205408 -0.0001134187 1.0888941947
H -0.8512021689 2.0641437551 -0.1667667504
H -0.3570535237 1.2285754429 1.3247076027
H 1.1663476637 1.2698915168 -1.3261072076
H 1.6118531496 2.1462759945 0.1473644905
H 2.9079639163 4.14997e-05 -0.1145151291
H 1.9119123526 -5.60965e-05 1.3460741379
H 1.1663399639 -1.2698131676 -1.3261778403
H 1.6118357626 -2.1463257906 0.1471959416
H -0.8513404895 -2.0639841085 -0.1665340141
H -0.3570169104 -1.2283597209 1.3246701508
*
