! pbe def2-sv(p) def2/J RI DEFGRID1 loosescf d4 GCP(DFT/SV(P)) printgap
%output
    printlevel normal
end
* xyz 0 1
C 2.0948390472 -0.5260866945 -0.6028771437
C 0.9197181425 -0.4873804146 0.3738716849
H 1.3138090096 -0.6925376606 1.3761039808
C -0.0765671653 -1.6005815683 0.0011531193
C -1.4879788235 -1.2792171031 0.477574899
C -2.0324551248 -0.0567331193 -0.2711076137
C -0.9077449619 0.9241040192 -0.6256686341
C 0.1979272986 0.8787738285 0.4294679547
H -0.2818654784 0.960019893 1.4114113946
C 1.1439283509 2.0695047073 0.2923348418
H 1.7789541658 -0.2283600127 -1.6001136434
H 2.9008325569 0.1275351195 -0.282594966
H 2.4846837504 -1.5404424696 -0.6594118061
H -0.0961795766 -1.7231123445 -1.0837058297
H 0.2586276003 -2.5466551702 0.4305572113
H -2.1428052058 -2.1365578456 0.3127608958
H -1.467173415 -1.086879539 1.5520148539
H -2.5322918219 -0.3769153682 -1.1870890345
H -2.7782649325 0.4427200042 0.3501165803
H -0.4810472268 0.6739463266 -1.5983260882
H -1.3112641832 1.9354917642 -0.6990781131
H 0.6008002111 2.9932862496 0.4808207347
H 1.56560602 2.1236810709 -0.7074375729
H 1.9552444655 1.9997228511 1.0131969824
*
