! pbe def2-sv(p) def2/J RI DEFGRID1 loosescf d4 GCP(DFT/SV(P)) printgap
%output
    printlevel normal
end
* xyz 0 1
C 1.3338845789 1.2366088597 0.2081544324
C 0.490451607 0.118656652 -0.4108764793
C 0.9141307404 -1.2624620559 0.0785799923
C -0.9639560675 0.3757116328 -0.1592872273
O -1.7732418847 -0.4335665024 0.2236944184
H 1.2341008502 1.2269866962 1.2907915268
H 1.0195872237 2.2086343058 -0.1624852232
H 2.3800681606 1.0893090605 -0.0428964033
H 0.6049150028 0.1685554385 -1.5017638015
H 1.9446410192 -1.4642826325 -0.1979231317
H 0.273817544 -2.0268433569 -0.3547743808
H 0.8219188402 -1.3200157353 1.1606642172
H -1.2770163703 1.4169340193 -0.3650191532
*
