! wb97x-v def2-tzvp def2/J RIJCOSX DEFGRID2 scfconv7 GCP(DFT/TZ) printgap
%output
    printlevel normal
end
%cpcm
    smd true
    smdsolvent "water"
end
* xyz 0 1
C -2.565000947475894 -0.9756625033548998 0.008308653555888192
C -1.241473414259375 -0.27520095032089126 -0.011708752988695335
C -1.1559377419610364 1.1187014954554524 -0.006479067808232635
C 0.09579176783606345 1.7151366126226584 0.0031531372499104364
N 1.2524368136579045 1.0372166687045314 0.006758661073225992
C 1.1799188618526717 -0.3077487862457074 -0.0010650858443640207
C -0.04025742735466972 -0.9842425178005231 -0.011828923819860079
C 2.4785894950334626 -1.0551978298183293 0.003016958885933141
H -2.9441463743090477 -1.0343498275706198 1.0355512681274042
H -3.307877586217834 -0.4310889446451217 -0.5808920654138712
H -2.481496973412346 -1.9959247815058276 -0.3739571315442506
H -2.052276976375627 1.7313413591606686 -0.011976360770334846
H 0.17675450423724062 2.8006107018513924 0.006269224320248932
H -0.05133197305126889 -2.0703842259354697 -0.021978980449099416
H 2.3173471475465277 -2.134345407550301 -0.04168567994096241
H 3.096920157034392 -0.7572708677044935 -0.850143647349253
H 3.0490477362945647 -0.8261543203611599 0.9096894811588153
*
