! pbe def2-sv(p) def2/J RI DEFGRID1 loosescf d4 GCP(DFT/SV(P)) printgap
%output
    printlevel normal
end
* xyz 0 1
C -2.4309201616 -0.9191662865 -0.894872486
C -1.7169029586 0.0120542002 0.046221585
C -2.3852446684 0.8151460341 0.8670279647
C -0.2426668984 0.0164837057 0.0202628935
C 0.4792516462 -1.1747557622 0.0332495123
C 1.8620111436 -1.1614610641 0.0271869207
C 2.5481350708 0.0411437067 -0.002348057
C 1.8413269893 1.2321626333 -0.0170165367
C 0.4587753131 1.2199536014 -0.0016531167
H -2.9171869223 -0.3397805338 -1.6785630767
H -1.7400947307 -1.6108860203 -1.3673729851
H -3.1995288731 -1.4830829083 -0.3710568342
H -1.8824596216 1.4799386851 1.5481696546
H -3.4617819953 0.8205190561 0.8970292576
H -0.0442265938 -2.1187090005 0.0738565509
H 2.4070601348 -2.0937999283 0.0458102688
H 3.6277184694 0.0501107033 -0.013273871
H 2.3697851068 2.1738110199 -0.0419440807
H -0.0900689117 2.1499309236 -0.022868996
*
