! r2scan-3c def2/J RI DEFGRID2 scfconv6 printgap
%output
    printlevel normal
end
* xyz 0 1
C -2.5623883398 -0.6731554552 -0.3153859236
C -1.1804594665 -0.2931066649 0.2254849052
H -1.2238500614 -0.2431380783 1.3237426104
C -0.7225914072 1.0692969203 -0.3122750703
H -0.7465211497 1.0322285598 -1.4153514562
C 0.7175543744 1.3378103676 0.1483427753
H 0.7232991804 1.4662662917 1.2370949796
C 1.6362777707 0.1617012078 -0.2136457475
H 1.708266 0.0820961063 -1.3124796727
C 1.0299447627 -1.1508944556 0.3241837168
H 1.0237861864 -1.1089507693 1.4249830381
O -0.2807293814 -1.3104936702 -0.1764533893
O 1.7551520946 -2.2695720781 -0.0114842803
O 2.9132884821 0.3188986712 0.34539982
O 1.2097203556 2.5515829992 -0.3680218378
O -1.6037846822 2.0552148888 0.155990794
O -3.0722015208 -1.8286278529 0.2936090202
H -2.4877811386 -0.8073549024 -1.4019115745
H -3.2593598878 0.1360102907 -0.0935921673
H 1.7253956373 -2.4089442767 -0.9717883155
H 3.1917695728 1.2424384384 0.2322878746
H 1.2248234308 2.517755758 -1.33707657
H -1.1806287552 2.9241786941 0.0622622629
H -2.4362034251 -2.5477645379 0.1649372094
*
