! wb97x-v def2-tzvp def2/J RIJCOSX DEFGRID2 scfconv7 GCP(DFT/TZ) printgap
%output
    printlevel normal
end
* xyz 0 1
C 2.0757000968418353 0.010394638124120257 -0.09354474087456593
C 0.7596154003362665 0.6606946076734508 0.32393156422567587
C -0.463020382783191 0.05205791218381787 -0.3456820865313999
H -0.3278533049152292 0.09271216596848063 -1.4383406860786228
C -1.745693548732133 0.7759360482135181 0.030308373428728448
O -0.5292310922195316 -1.3377113611851388 0.06054587310899372
H 2.208354655975232 0.060221898767975554 -1.1802327331532851
H 2.116146789923227 -1.0420067666649897 0.20233661227673116
H 2.926520446300972 0.5187762675794301 0.3708423898655039
H 0.7771548477163465 1.7274467001306215 0.07189579373384282
H 0.6292776696106209 0.5937491251067902 1.4124854093828247
H -2.6148705551021996 0.2842280723909357 -0.41952652002724944
H -1.8756486038514684 0.787474076019255 1.1180681934649905
H -1.719662364563738 1.8102494173966277 -0.32810134288541726
H -1.2978117009732377 -1.7252631815420691 -0.37733252385568655
*
