! r2scan-3c def2/J RI DEFGRID2 scfconv6 printgap
%output
    printlevel normal
end
* xyz 0 1
C 4.4810960407 -0.283743633 -0.0355484233
C 3.6582912365 -1.1775415107 0.628706519
C 2.2906746567 -0.9691807501 0.6780702696
C 1.7465420228 0.1387924834 0.0431690383
C 2.5693808275 1.0433628288 -0.6182996252
C 3.9343208822 0.8292648108 -0.6535580857
N 0.3480942753 0.395787248 0.079665858
C -0.5878853425 -0.6301007616 -0.0802031738
O -0.237495454 -1.8005217897 -0.2688217684
C -1.942086772 -0.1902303286 -0.0247021276
C -2.3127205359 1.1321291684 0.1432860992
C -1.2074936781 2.0398017809 0.2529310693
N 0.0236321804 1.6709717153 0.2161567771
N -3.576279113 1.5537221861 0.1963063129
Cl -3.1474424353 -1.4368384679 -0.2086669558
H 5.5457498098 -0.4540416389 -0.0687016884
H 4.0785585607 -2.0415290226 1.1195793655
H 1.6508511212 -1.6646341002 1.1968352128
H 2.1287731521 1.9047705625 -1.0929055971
H 4.5709617064 1.5308457811 -1.1690569509
H -1.3717976331 3.0978583803 0.3752443234
H -3.7836174056 2.5293091408 0.3164812058
H -4.3157529839 0.8763692582 0.1121490569
*
