! pbe def2-sv(p) def2/J RI DEFGRID1 loosescf d4 GCP(DFT/SV(P)) printgap
%output
    printlevel normal
end
* xyz 0 1
C -1.8821243306 -1.0079391284 -0.7536211086
C -1.2824450621 -0.163888288 0.3861698761
H -2.05879876 -0.0141273148 1.143448373
C -0.7872078653 1.2135359743 -0.1248086478
H -0.9174403225 1.260183799 -1.2132294163
C 0.7067472119 1.3615868306 0.1936957405
H 0.8548871801 1.416792436 1.2792650807
C 1.4400338923 0.1150773356 -0.329788959
H 1.2217824872 -0.0105351139 -1.4035047324
C 0.923501682 -1.1237469546 0.4333539252
H 1.6424378434 -1.3554705747 1.2313718596
O -0.2720689242 -0.8678953332 1.1066855102
O 0.7491434134 -2.2283037689 -0.4148754328
O 2.8267188107 0.2133727794 -0.1341114946
O 1.2787363744 2.5338120189 -0.3253630119
O -1.5544600986 2.2802413476 0.3635803754
O -2.3316278654 -2.2579901109 -0.3021321138
H -1.140922246 -1.1371449609 -1.5521843715
H -2.7566962724 -0.4887390039 -1.1498903489
H 1.5927977681 -2.6745397198 -0.5691332562
H 3.0859392641 1.1411843157 -0.2647859966
H 0.9263690641 2.7163495012 -1.2086322035
H -1.4356335877 2.3693153411 1.3203373282
H -1.565391531 -2.7389320646 0.0471917012
*
