! pbe def2-sv(p) def2/J RI DEFGRID1 loosescf d4 GCP(DFT/SV(P)) printgap
%output
    printlevel normal
end
* xyz 0 1
C -2.4429986137 -1.0502330405 -0.3479514423
C -1.0798616464 -0.5626232499 0.1521892722
H -1.1197545687 -0.5445755324 1.2533105478
C -0.7259247914 0.8454818474 -0.3658166508
H -0.6548689927 0.7989645784 -1.4601701866
C 0.6488131759 1.2560467952 0.2051732424
H 0.6000116103 1.3085318692 1.2991413717
C 1.6824389065 0.1855563086 -0.1813613071
H 1.8053324554 0.1852807463 -1.2774147693
C 1.1790344944 -1.2099106103 0.2561486208
H 1.156317742 -1.2372689113 1.3597067916
O -0.0940373332 -1.4847716115 -0.2724795932
O 2.0472765817 -2.2068085829 -0.1512211951
O 2.9049161289 0.476109402 0.444683838
O 1.0246987222 2.545876644 -0.1912621674
O -1.7227173419 1.7911886213 -0.1087740316
O -3.4167446983 -0.6323961565 0.5776081561
H -2.3997611784 -2.1449496188 -0.4110055712
H -2.6389895803 -0.6371615157 -1.3430785267
H 1.8203378737 -2.4760581016 -1.05562466
H 3.5014437884 -0.2810787234 0.3342909093
H 1.0881488383 2.5937543108 -1.1562003449
H -1.8608683925 1.8817697413 0.844477895
H -4.2973711611 -0.829095588 0.2293102711
*
