! pbe def2-sv(p) def2/J RI DEFGRID1 loosescf d4 GCP(DFT/SV(P)) printgap
%output
    printlevel normal
end
* xyz 0 1
C 4.4557115458 -0.274247275 -0.0027895838
C 4.2484679379 1.0930272397 -0.0003811004
C 2.9591296932 1.6017722035 0.001479519
C 1.877230697 0.7386659152 0.0011000221
C 2.0857267378 -0.6392915871 -0.0003423879
C 3.3754072483 -1.14244604 -0.0026239663
O 1.0372966882 -1.5383822822 0.0006369093
C -0.2222949859 -0.9910494604 0.0013009035
C -1.3081835485 -1.85017163 0.0018653343
C -2.600764965 -1.3504018034 0.0012994031
C -2.7918369212 0.0184285803 -7.4463e-06
C -1.7191043004 0.8970986921 0.0002192753
C -0.4303964044 0.3909291031 0.0011970463
O 0.6077398025 1.287322776 0.0020010809
Cl -4.4016113984 0.6644162432 -0.0019295025
H 5.4566937022 -0.6734417787 -0.0047985681
H 5.0858729048 1.7712391101 -0.0001500811
H 2.7685040081 2.6623015696 0.0033364388
H 3.5078130426 -2.2117226808 -0.0041519748
H -1.1233087712 -2.9112274366 0.0027738324
H -3.443475861 -2.020391134 0.0017128437
H -1.8617832793 1.9645199424 -0.0003390407
*
