! wb97x-v def2-tzvp def2/J RIJCOSX DEFGRID2 scfconv7 GCP(DFT/TZ) printgap
%output
    printlevel normal
end
%cpcm
    smd true
    smdsolvent "water"
end
* xyz 0 1
C -2.5301690658148983 0.0779248771333697 -6.99950284372315e-05
C -1.121238730556575 -0.5170247924349205 -4.34020467807891e-06
C -0.09815155119762313 0.5962585022318173 1.5239106552026479e-05
Cl 1.620204718716208 -0.0758733769203847 8.252926068967575e-05
H -2.696384274104328 0.6988488960808685 -0.8863626990898632
H -3.28031237182514 -0.7179348420351331 -8.20567496109692e-05
H -2.6964495145624867 0.6988888458924274 0.886184484582357
H -0.9792532966467986 -1.1474515183000311 0.8840445003986435
H -0.9791853064561254 -1.147481757776149 -0.8840202521998264
H -0.16978239692480773 1.2206293683690284 0.8927973580480623
H -0.16972101490926203 1.220605448744173 -0.8927886049850722
*
