  5
         -7.74810540
 C          1.6334666100        0.0000129861       -0.0000140593
 Br        -0.3197609989        0.0000012154       -0.0000070329
 H          1.9620701077        0.7965599866       -0.6582055697
 H          1.9605754904        0.1718564032        1.0193428725
 H          1.9615254718       -0.9686674864       -0.3604122438
