! wb97x-v def2-tzvp def2/J RIJCOSX DEFGRID2 scfconv7 GCP(DFT/TZ) printgap
%output
    printlevel normal
end
%cpcm
    smd true
    smdsolvent "water"
end
* xyz 0 1
C -2.7367224950539546 0.12370239010776525 0.7154740504004493
C -1.9407682250078073 -0.14552364600617204 -0.5681354288707691
C -0.46542825226060935 -0.08633978918942088 -0.31390009442503086
C 0.2223888223366093 1.130247384024011 -0.37909399635675783
N 1.5264064164328353 1.2424672214268053 -0.11835782724276643
C 2.1559599724701752 0.10736592896540754 0.2151457312655453
C 1.4867636098214536 -1.1048551170140997 0.2804629918224188
N 0.1777272672871586 -1.2155305395408373 0.019755484416523788
H -2.503742527249559 -0.6206657836857347 1.482778346426307
H -3.8110150941350724 0.08320384152144636 0.5135059399209039
H -2.5002821476312134 1.1139388957955203 1.1173786513650135
H -2.2050878773981593 0.6013392890409821 -1.3238728477437565
H -2.1960111836163585 -1.132505949005159 -0.9646120187630911
H -0.307813595400431 2.038561603032952 -0.6569300464410307
H 3.2188910903209433 0.16655866101644476 0.4323914007009397
H 2.0197175658583735 -2.014270677336908 0.5470110970141893
*
