! r2scan-3c def2/J RI DEFGRID2 scfconv6 printgap
%output
    printlevel normal
end
* xyz 0 1
C 1.158954641 -0.6978541465 0.0006352596
C 1.1589759956 0.6978775651 0.0004155106
C 2.3643755584 1.3918063498 -0.0002115067
C 3.5754959141 0.6958446821 -0.0004872697
C 3.5754257708 -0.6957686333 5.50829e-05
C 2.3643729443 -1.391779979 0.0005893263
Cl 2.3324857812 -3.1055450025 0.0011059865
Cl 5.0535934047 -1.5591556199 2.8508e-06
Cl 5.0535516392 1.5591535675 -0.0012346148
Cl 2.3324644244 3.1056011973 -0.0006015173
O 2.2848e-06 1.4223380763 0.00072564
C -1.1589450254 0.697903611 0.0006113404
C -1.1589705643 -0.6978184184 0.0004125793
C -2.3643482415 -1.3918159162 -0.0002085656
C -3.5754428988 -0.695849847 -0.0005284351
C -3.5754295101 0.6957686263 -1.01918e-05
C -2.364391126 1.3917986079 0.0005613934
Cl -2.3325947967 3.1055765711 0.0011897745
Cl -5.0536061756 1.5590993403 1.48581e-05
Cl -5.0535674189 -1.5592231262 -0.001293477
Cl -2.3323549389 -3.1055676057 -0.000515485
O 4.7928e-06 -1.4222880772 0.0008478943
*
