! wb97x-v def2-tzvp def2/J RIJCOSX DEFGRID2 scfconv7 GCP(DFT/TZ) printgap
%output
    printlevel normal
end
%cpcm
    smd true
    smdsolvent "water"
end
* xyz 0 1
C -1.3546072061368433 -0.8718200222487247 0.4210526501259807
C -0.5763853913980442 0.0841403089132655 -0.48514621974366595
C -0.6690669020541917 1.5243349870001117 0.0225544577332252
C 0.8684876510753493 -0.35927172903746846 -0.6679286973111531
O 1.5462410871208214 -0.337772243868311 0.6065136157644383
H -1.2860257005597735 -1.9046611240543614 0.06227736383724264
H -2.413259518721636 -0.5950217351491673 0.45524560631696076
H -0.9705573391886888 -0.8421639612793117 1.4461478873729243
H -1.0195011340377291 0.04383801960443857 -1.4899277275375813
H -0.11026429622089703 2.2106195359190033 -0.623146403387838
H -0.2675268302006772 1.6100864115415652 1.0377176487134894
H -1.7116252778109684 1.8573750895085241 0.04881835006253596
H 0.8949775422380606 -1.3757983148446609 -1.0865049095068988
H 1.3776281741709333 0.3155244724157232 -1.371225831651586
H 2.4567169104822986 -0.6160975837411323 0.4512108434031958
*
