! wb97x-v def2-tzvp def2/J RIJCOSX DEFGRID2 scfconv7 GCP(DFT/TZ) printgap
%output
    printlevel normal
end
* xyz 0 1
C -1.0943150831670658 -1.8662092824149146 -0.00019940911924933296
C 0.2457641716641623 -1.4961989945368819 -0.00019097216666916087
C 0.5375686972198609 -0.1370959020659058 2.7929500994337517e-06
C -0.4399079965793656 0.8520720206638396 7.327928573059796e-06
C -1.77214264517055 0.4504966156333421 3.548113417427392e-05
C -2.100751066280976 -0.9086498671403268 -7.777686110699854e-05
O -2.8059245498085543 1.3447971401952037 0.00020502407268467763
N 1.9420950520162354 0.2828019294031961 0.0005155476870353199
O 2.811373553225865 -0.5873791275159946 0.00025941568670498864
O 2.191585650626712 1.4874620224010122 -0.0005068026708092272
H -1.3582411663106044 -2.9179207834143606 -0.00026242476208019537
H 1.0353387901974858 -2.2352920748761993 -0.00021982571206679888
H -0.1746048075763259 1.9026804523237564 0.0001513352283631653
H -3.1456347890986427 -1.2002103847842818 -6.028699532446741e-05
H -2.4610089205804573 2.2496669464803736 0.00035930442453162374
*
