! r2scan-3c def2/J RI DEFGRID2 scfconv6 printgap
%output
    printlevel normal
end
%cpcm
    smd true
    smdsolvent "water"
end
* xyz 0 1
C -1.4773761728 -1.4057696628 0.3665423608
C -1.0426980448 -1.90007e-05 1.77316e-05
C -1.4772673443 1.0203418262 1.0341450466
C -1.4773924844 0.3854745297 -1.400638122
Br 1.0038017672 -8.1529e-06 -1.17706e-05
H -1.1076030216 -1.6826113869 1.3514302506
H -2.5644460873 -1.4511087654 0.3781856388
H -1.1073700187 -2.128286544 -0.3576492228
H -1.1069122867 0.7546868019 2.0218912526
H -1.1077115418 2.0117088636 0.7811679977
H -2.5643310664 1.0529496443 1.0678934848
H -2.5644674332 0.3984528981 -1.4456122703
H -1.1079514482 -0.3292200299 -2.1328188779
H -1.1070713408 1.3737448468 -1.6643537361
*
