! pbe def2-sv(p) def2/J RI DEFGRID1 loosescf d4 GCP(DFT/SV(P)) printgap
%output
    printlevel normal
end
* xyz 0 1
C -2.4571801261 -0.8441461602 0.1203878539
C -1.0413264482 -0.4963645437 0.5928943506
H -0.9368377967 -0.7690195857 1.6559708863
C -0.7398235322 1.0172156573 0.4495658049
H -1.5954287635 1.4986855057 -0.0370866908
C 0.4908000655 1.2296779527 -0.4493316738
H 0.7998707832 2.2798127694 -0.3387736072
C 1.6563716585 0.3463505072 0.0407750067
H 2.454738773 0.3586066913 -0.7126998276
C 1.1895243866 -1.1243359665 0.1781605211
H 1.3112357266 -1.4276966214 1.2438608271
O -0.1576187719 -1.2954831441 -0.1763027505
O 1.9614409335 -1.913320318 -0.6541167711
O 2.101940599 0.8750530774 1.2655536573
O 0.1206533153 0.9415992797 -1.7690324149
O -0.590577635 1.6425464701 1.6967010523
O -2.7523098936 -0.3157984947 -1.145974506
H -3.1852232104 -0.4163496833 0.8116851925
H -2.556737457 -1.9378361804 0.1135147818
H 1.5034131063 -2.7523217776 -0.8186290907
H 2.9713096883 0.5153122822 1.4922643544
H 0.8307250247 1.1895220333 -2.378041373
H 0.3086935804 1.4780647847 2.0283678068
H -2.0114452506 -0.5086652281 -1.7402641015
*
