  12
        -13.74416342
 C         -2.5050659825        0.0779343330       -0.0095807285
 C         -1.0981407955       -0.5089560582       -0.0251384061
 C         -0.0517095896        0.5898095326        0.0619572746
 S          1.6567284368       -0.0602900565       -0.0454226755
 H         -3.2430535835       -0.7173869758       -0.0666467975
 H         -2.6731244157        0.6410627574        0.9054611058
 H         -2.6501189241        0.7452876482       -0.8558314076
 H         -0.9430551001       -1.0782541223       -0.9440130395
 H         -0.9771114961       -1.1933095148        0.8174204437
 H         -0.1345021533        1.2768493461       -0.7802024805
 H         -0.1342076891        1.1540050771        0.9903450510
 H          1.6034351346       -0.8024298562        1.0538884668
  12
        -13.74400331
 C         -1.9195451150       -0.2306584807        0.5348300886
 C         -1.1881998985       -0.0611900089       -0.7905415274
 C          0.1120927251        0.7123893473       -0.6366581960
 S          1.3453800977       -0.1565069575        0.4039882411
 H         -1.2863452067       -0.7482708882        1.2525263602
 H         -2.1849328553        0.7391368014        0.9502421512
 H         -2.8288539205       -0.8088620094        0.3960007607
 H         -1.8211375257        0.4861078953       -1.4928824197
 H         -0.9780158143       -1.0424710361       -1.2217568428
 H          0.5813978290        0.9050996043       -1.6006038271
 H         -0.0544637339        1.6596545448       -0.1241485976
 H          1.4694155284       -1.2227806036       -0.3775447331
  12
        -13.74315918
 C         -1.9618801726       -0.2242226889        0.5005099507
 C         -1.1752487740       -0.1096816397       -0.7994306552
 C          0.1137191007        0.6847398911       -0.6477710465
 S          1.3805043843       -0.1634485242        0.3712674356
 H         -1.4072841205       -0.8017651166        1.2364707629
 H         -2.1680655355        0.7620301457        0.9107838387
 H         -2.9082417356       -0.7270120670        0.3204371042
 H         -1.7862728513        0.3958194539       -1.5509660258
 H         -0.9376663560       -1.1073646729       -1.1744219108
 H          0.5989259906        0.8176886928       -1.6145708613
 H         -0.0645865104        1.6611106645       -0.2000221425
 H          0.7836376644        0.0185497213        1.5423505517
  12
        -13.74229972
 C         -2.5054413403        0.0396579246        0.0205105853
 C         -1.0861166282       -0.5122996067       -0.0395306830
 C         -0.0613206148        0.6057334678        0.0549100122
 S          1.6347232672       -0.1047631077       -0.0199601511
 H         -2.6684929557        0.5704883328        0.9555141598
 H         -2.6813450972        0.7277973816       -0.8029522161
 H         -3.2252066659       -0.7714012276       -0.0467997725
 H         -0.9375427750       -1.0561798309       -0.9755040622
 H         -0.9252004894       -1.2157416848        0.7809718610
 H         -0.1631583617        1.3000571350       -0.7783210453
 H         -0.1518523423        1.1392694344        1.0003746145
 H          2.2768102932        1.0525160004        0.0740240004
  12
        -13.74194601
 C         -1.9240597753       -0.2556006067        0.5221592275
 C         -1.1761962350       -0.0905072797       -0.7951401866
 C          0.0983211243        0.7224880351       -0.6364715251
 S          1.3232201284       -0.1957602975        0.3907791361
 H         -2.8246011240       -0.8457700279        0.3757448142
 H         -1.2960708245       -0.7622310193        1.2525711437
 H         -2.2057155494        0.7147660620        0.9250208513
 H         -1.8155693249        0.4194553880       -1.5193219571
 H         -0.9249170540       -1.0736462442       -1.2001909205
 H          0.5670698732        0.9017422284       -1.6030041295
 H         -0.1020968102        1.6679757290       -0.1338917983
 H          2.2787860794        0.7202803116        0.3086763720
