! pbe def2-sv(p) def2/J RI DEFGRID1 loosescf d4 GCP(DFT/SV(P)) printgap
%output
    printlevel normal
end
* xyz 0 1
C -2.2897563243 -1.07139689 -0.2392026019
C -0.9145778314 -0.5769185062 0.2102459006
H -0.8209983021 -0.7241172307 1.2976001041
C -0.7443275047 0.9306846638 -0.0885591022
H -1.3599628142 1.1992891284 -0.9585924289
C 0.7319155359 1.2470908291 -0.412358684
H 0.9128229197 2.2952554225 -0.1320505866
C 1.6239067669 0.3454643989 0.4445357601
H 2.6799098472 0.5493573402 0.2244042028
C 1.3753624103 -1.1350993297 0.0389913874
H 1.5444598583 -1.7666613235 0.9268349791
O 0.0652760609 -1.343621143 -0.4567530562
O 2.2594920664 -1.5627681112 -0.9289079877
O 1.4272353844 0.552951212 1.8207910326
O 1.0636945958 1.0134265741 -1.7550390993
O -1.1044026195 1.7115866689 1.0269345973
O -3.2549214094 -0.2433471806 0.3683831799
H -2.4047486029 -2.1175472845 0.0629327622
H -2.3412505918 -1.0112094208 -1.3331012621
H 2.0856059663 -1.0583722203 -1.7428887463
H 0.6146189225 1.069973202 1.9607278084
H 0.6134754678 1.6525613277 -2.3259585451
H -2.036797589 1.5379744338 1.2332936526
H -4.1399734758 -0.5615281318 0.1420758457
*
