! wb97x-v def2-tzvp def2/J RIJCOSX DEFGRID2 scfconv7 GCP(DFT/TZ) printgap
%output
    printlevel normal
end
* xyz 0 1
C -2.5979596826121565 -0.6046263974646671 -0.32075229121680826
C -1.2187343075343624 -0.2744572634847686 0.21731307077892462
H -1.2515420355670264 -0.2203602136038485 1.3187707156905921
C -0.6907188768788173 1.0511966311923813 -0.3347931932770005
H -0.7075220120885753 1.0124039206529163 -1.4358689093778545
C 0.7419588679693309 1.2730703918528155 0.13217782747506612
H 0.7354423596599077 1.4137267591394156 1.2245620961715238
C 1.6144109245019815 0.07099509376794293 -0.19744464969712702
H 1.6955041645605977 -0.03741905478716314 -1.2909498013569967
C 0.9732646059475852 -1.197585642883305 0.365650966482418
H 0.9146378698075326 -1.1512206952893234 1.4632598890885462
O -0.33985875951803496 -1.3372621904525153 -0.18626072838595836
O 1.7030691423339122 -2.353945660092003 0.049824542488752926
O 2.898646915950732 0.30251313717904543 0.3862670743657291
O 1.214014340072803 2.4637875492594827 -0.511299017113918
O -1.5423821154400372 2.097828428860095 0.14028968874053188
O -3.1333030332667944 -1.805132569033076 0.25025435402299184
H -2.532384384972025 -0.7759383057364799 -1.4002525834550363
H -3.2673080194505406 0.24469868944916556 -0.14201549164738425
H 1.8930455736416252 -2.3428100551312405 -0.9006353693169817
H 3.4968560683760304 -0.3812574155689992 0.0569282469634676
H 2.0390905937249384 2.7223799650997615 -0.08059302841687827
H -1.1427991913491562 2.9336227171652745 -0.137883759064448
H -3.3081173619674016 -1.6279017045944744 1.1838698376502366
*
