! pbe def2-sv(p) def2/J RI DEFGRID1 loosescf d4 GCP(DFT/SV(P)) printgap
%output
    printlevel normal
end
* xyz 0 1
C 3.063970932 -0.0797924559 0.2331500061
C 1.9361844975 0.1446575766 -0.7732140074
H 2.3995484357 0.2794519309 -1.7588416966
C 1.1240782612 1.4044147074 -0.4591235393
C 0.2265783853 1.2069610699 0.7569327082
C -0.7851798157 0.0750506943 0.5445035921
H -1.3363930801 -0.0562271414 1.4857092665
C 0.0143693937 -1.2195791606 0.2915702022
H -0.6760768227 -2.0333264362 0.0201644872
C 1.0108884228 -1.0742131119 -0.8645272227
O 0.7191906076 -1.619755922 1.4573730477
C -1.8350492711 0.3505288511 -0.5518314574
C -2.9550263159 -0.6923584107 -0.5151558362
C -2.4632900715 1.7370222435 -0.3959291713
H 3.7098251435 -0.8867833806 -0.1060580714
H 3.6652316679 0.8207742335 0.3377344063
H 2.6674388509 -0.357681619 1.2041635189
H 1.8065457864 2.2372963894 -0.2768578371
H 0.51378812 1.6623196429 -1.3266490027
H 0.848239998 0.9426676239 1.6141326699
H -0.2860320469 2.136589401 1.001366859
H 1.6147030222 -1.9830572912 -0.8986516741
H 0.4353754809 -1.0197774614 -1.789851979
H 0.0840081082 -1.8050055876 2.1611354403
H -1.353395368 0.2996770349 -1.5322347263
H -3.6977609676 -0.465553468 -1.2764059397
H -3.4478353607 -0.6842571446 0.4548400535
H -2.581880612 -1.6947124947 -0.705139321
H -3.2875009221 1.847949824 -1.0968994185
H -1.7464063969 2.5269926449 -0.5980344783
H -2.8532247967 1.8663960523 0.6114019901
*
