! wb97x-v def2-tzvp def2/J RIJCOSX DEFGRID2 scfconv7 GCP(DFT/TZ) printgap
%output
    printlevel normal
end
* xyz 0 1
C -1.4670885037995998 -0.0006629491954007268 -0.2229996287970483
C -0.7238010277484752 1.2562499211320546 0.23338857179327938
C 0.7307614630559371 1.2084129187764732 -0.216805028992564
N 1.3914709517313233 0.0007290443890361219 0.31430974292458397
C 0.731915136178677 -1.2075495660082118 -0.21688181229507286
C -0.7225568689079022 -1.2568221708510017 0.23342724061243023
H -1.5286357980995673 -0.0007173080114514457 -1.3202917046113776
H -2.494756445920517 -0.0011552024151389216 0.1574616302039533
H -1.201002579580053 2.15520900666632 -0.17367064756803777
H -0.7633319986903474 1.33322866696187 1.327896352043893
H 0.7603170589471612 1.2326673876457523 -1.3224552436741397
H 1.2704483140259983 2.0914837999225946 0.14200926455528798
H 2.3454363647025325 0.0012015009057092436 -0.03418756189384743
H 0.7613877374252025 -1.2316461965897136 -1.3225393073264966
H 1.2725039143247447 -2.090127225673414 0.14178169654966186
H -1.1989120926010346 -2.156280072053168 -0.17351921257132855
H -0.761914736236974 -1.333752775925956 1.327947023981985
*
