! pbe def2-sv(p) def2/J RI DEFGRID1 loosescf d4 GCP(DFT/SV(P)) printgap
%output
    printlevel normal
end
* xyz 0 1
C -1.7013181851 -1.3574882103 -0.5281032958
C -1.1378368898 -0.4936216232 0.6203138771
H -1.872136289 -0.4636486793 1.4336879218
C -0.8689948099 0.9637214213 0.1668810915
H -1.2338605869 1.0801147934 -0.8608341446
C 0.6385116297 1.2708030156 0.2076147809
H 0.9707942201 1.3669233823 1.2483650911
C 1.3964715136 0.0938078013 -0.4267538553
H 0.9913054887 -0.0996726492 -1.4307962413
C 1.1707339053 -1.1605096102 0.4431849364
H 1.9814294311 -1.2130930974 1.1867735437
O 0.0015060738 -1.0965453236 1.2216061535
O 1.1929078384 -2.2724292484 -0.3983879641
O 2.7601066607 0.4159344309 -0.4983976597
O 0.9434188714 2.5029787077 -0.379864093
O -1.6164129923 1.8916896341 0.9120797776
O -2.7973442031 -0.7591275854 -1.1678834843
H -1.9638445853 -2.343930988 -0.1267966566
H -0.9407615434 -1.4926766895 -1.2997378382
H 1.1789608425 -3.0904096726 0.1213868814
H 3.2273773908 -0.2546615171 -1.0172226774
H 0.7203928827 2.4874372789 -1.3218493381
H -1.2245574084 2.0051999826 1.7897732781
H -3.5335864754 -0.6729579943 -0.545842505
*
