! pbe def2-sv(p) def2/J RI DEFGRID1 loosescf d4 GCP(DFT/SV(P)) printgap
%output
    printlevel normal
end
* xyz 0 1
C -2.1235541571 -1.1647172459 -0.2053303357
C -1.260778165 -0.3293355204 0.7501149348
H -1.8532388248 -0.1410557713 1.6517628933
C -0.9018367364 1.0431317124 0.1472222989
H -1.1533734342 1.0621137504 -0.9243702904
C 0.6062300996 1.282004273 0.2610530595
H 0.8906094948 1.3374875192 1.3232093751
C 1.3234041894 0.0943205384 -0.3839266945
H 0.9584740536 -0.0098523954 -1.4172866896
C 0.9833007527 -1.1941154861 0.4011632368
H 1.8078944073 -1.4238268163 1.0879246796
O -0.1283783797 -1.0295685236 1.2498461128
O 0.8659748721 -2.2971459184 -0.4360060303
O 2.7032773578 0.369913491 -0.3781790499
O 0.90394286 2.4909152558 -0.3905910556
O -1.6432096716 2.0240060938 0.8271537147
O -1.4809205288 -1.311018986 -1.4598470637
H -3.0770565542 -0.6418322531 -0.3229376713
H -2.2928546324 -2.145438441 0.2537770026
H 0.0898864332 -2.1578468611 -1.0203718985
H 3.1797698262 -0.334508419 -0.8391238085
H 1.8667255427 2.5555830301 -0.4804596155
H -1.3301763511 2.8950138071 0.5384467763
H -2.0991988746 -1.7161246476 -2.0855244981
*
