! pbe def2-sv(p) def2/J RI DEFGRID1 loosescf d4 GCP(DFT/SV(P)) printgap
%output
    printlevel normal
end
* xyz 0 1
C -1.9187768401 -0.9702190269 -0.7523237515
C -1.2743825966 -0.1597446987 0.3858528608
H -2.0317265687 0.0265519781 1.156233295
C -0.7519690447 1.2100649109 -0.1204804952
H -0.8662734042 1.278512632 -1.2077739026
C 0.741722857 1.3449919892 0.1985250213
H 0.8829731454 1.4055009346 1.2908279823
C 1.4716862994 0.0933085687 -0.3057788542
H 1.2702261831 -0.0263015473 -1.3793844885
C 0.9289261999 -1.1465990262 0.4331265727
H 1.6200205026 -1.4007531103 1.2542661966
O -0.2833022076 -0.8998195378 1.0926513915
O 0.8503700517 -2.1891011434 -0.4894862637
O 2.8441440879 0.2864398257 -0.0744134653
O 1.2344528889 2.503313623 -0.4185854051
O -1.5173502205 2.2698623082 0.386278092
O -2.4377412289 -2.2009134071 -0.3180272863
H -1.1686473963 -1.2159963239 -1.5065740816
H -2.6984221923 -0.3490619669 -1.2108145361
H 0.4486596137 -2.9692806904 -0.0768814177
H 3.3550359749 -0.4050348737 -0.5178046677
H 2.2029836136 2.4844533157 -0.3619889335
H -1.2781432637 2.4425640804 1.3087603298
H -3.1320740216 -2.0473894374 0.3384937419
*
