  16
        -23.11569332
 C         -2.7803769296       -0.4049101295        0.0000983343
 O         -1.7898323470        0.6049846651       -0.0000699184
 C         -0.4751022935        0.2331649601       -0.0000378217
 C         -0.0196225684       -1.0799352500       -0.0000745250
 C          1.3429103132       -1.3335754195       -0.0000016251
 C          2.2569666235       -0.2968745001        0.0000498375
 C          1.8018650416        1.0132086755        0.0000265559
 C          0.4485567715        1.2794864389       -0.0000072899
 H         -2.7083567369       -1.0290202320        0.8947478908
 H         -2.7086098833       -1.0291104292       -0.8945160341
 H         -3.7297620818        0.1258296232        0.0002204318
 H         -0.7101929791       -1.9078336975       -0.0001042990
 H          1.6861161567       -2.3572200564       -0.0000225400
 H          3.3155472787       -0.5046121923        0.0000716014
 H          2.5055458312        1.8315460891        0.0000571667
 H          0.0740249806        2.2910591470        0.0000185164
