! wb97x-v def2-tzvp def2/J RIJCOSX DEFGRID2 scfconv7 GCP(DFT/TZ) printgap
%output
    printlevel normal
end
%cpcm
    smd true
    smdsolvent "water"
end
* xyz 0 1
C 0.7173170117179875 -1.4846477068469623 -0.07320913876835078
C 0.5461901164037454 -0.07205925515629903 0.4678109583039886
C 1.2946036817415296 0.9584420130849958 -0.3664775063519939
O -0.8505904404262739 0.27943685876271407 0.6460051660957752
C -1.6242416997910298 0.31496301185358333 -0.5546422268286094
H 0.11485715359946413 -2.197231612908339 0.49897925089315426
H 0.43972798595083723 -1.5533759366480582 -1.1296305897630605
H 1.767664388826494 -1.7798945661999852 0.013660237607815238
H 0.932107091548737 -0.0401874458615801 1.4932682826350723
H 1.0194583041917376 0.9042284305052717 -1.4243600012430995
H 2.3703220008271466 0.7703664060821007 -0.2935254358840733
H 1.099979427309885 1.971714063240801 -0.0009789248782501858
H -1.2531477617573308 1.0657976364084176 -1.2638187181116778
H -2.6398975732357624 0.5892033116408263 -0.258810812853968
H -1.6583966188514376 -0.6624071774494101 -1.0525403440878385
*
