! pbe def2-sv(p) def2/J RI DEFGRID1 loosescf d4 GCP(DFT/SV(P)) printgap
%output
    printlevel normal
end
* xyz 0 1
C -2.4579411059 1.07434241 1.2082869844
C -1.4643196512 0.4946778808 0.2517768588
C -0.7058813012 1.2068119859 -0.571448828
C 0.2954477865 0.5127501986 -1.4356478942
C 1.0850920101 -0.4940041039 -0.5722182416
H 1.7467903097 -1.0567009426 -1.2378999179
C 0.1211312512 -1.4856874591 0.0993929558
C -1.3414615277 -1.0097025819 0.1916312769
H -1.8054214491 -1.4597228017 1.0846146424
O -2.0071067107 -1.5264996454 -0.9618350839
C 1.9612237938 0.2639068444 0.4008162201
C 1.575721494 0.6288925276 1.6132073696
C 3.326091365 0.5989084783 -0.1233515823
H -3.457592125 0.6862188603 1.0162523749
H -2.4793212641 2.1574712876 1.125927251
H -2.1921818867 0.8055446641 2.2307325582
H -0.7624543123 2.2847263118 -0.6011139362
H -0.2149710133 -0.0432818293 -2.2261033126
H 0.9733631874 1.2289076461 -1.8992269304
H 0.0908806946 -2.4100866662 -0.4801090389
H 0.4845955755 -1.7271688988 1.0974506849
H -2.9118039757 -1.1891650048 -0.9845960383
H 2.2282620552 1.184951162 2.2656197449
H 0.6011722118 0.3988855748 2.0050869733
H 3.2515414807 1.1098060123 -1.0818086635
H 3.8673374504 1.234343253 0.5719676757
H 3.8984929972 -0.3149336091 -0.2796347145
*
