! wb97x-v def2-tzvp def2/J RIJCOSX DEFGRID2 scfconv7 GCP(DFT/TZ) printgap
%output
    printlevel normal
end
* xyz 0 1
C -1.817213417545952 -1.46655394039549 -5.743105222917233e-05
C -0.5231012947019714 -0.7047630037671885 7.008307643940414e-06
C 0.6982972494254849 -1.3829866579444043 8.398074020464274e-06
C 1.9103043498850178 -0.6955593563492082 -4.32856029231128e-06
C 1.9103014798460387 0.6955708155101884 -1.761439273214029e-05
C 0.6982914116327638 1.382992822047463 1.4637183673003772e-05
C -0.5231041977016316 0.7047637286845148 3.5154240408199576e-05
C -1.817219263849721 1.4665496916474245 -5.795867629943724e-06
H -1.6374066472684339 -2.544298922734911 -0.0001601255614258336
H -2.424954703222832 -1.2207740455441316 0.8787199304705686
H -2.4249438344535466 -1.220598181042682 -0.8787951599206064
H 0.6966986788247698 -2.4699755260254848 1.4617599141943202e-05
H 2.8466432210043595 -1.2454276001395959 -5.0757670970316775e-06
H 2.8466380013819665 1.245443068955842 -4.668296227244423e-05
H 0.6966875070146088 2.4699816990889585 2.4079713989759034e-05
H -2.425391580377044 1.2200158061807143 0.8782573264463596
H -1.6374165125332776 2.54429502486241 0.000872168655116993
H -2.4245164377917137 1.2213441128500164 -0.8792571291276989
*
