! r2scan-3c def2/J RI DEFGRID2 scfconv6 printgap
%output
    printlevel normal
end
%cpcm
    smd true
    smdsolvent "water"
end
* xyz 0 1
C 1.2448561254 1.457710533 -0.2335042059
C 0.7142220536 0.0395349971 -0.4254583818
C 1.5312748863 -0.9589168128 0.405478446
C -0.7434178822 -0.0541251241 -0.0096509982
O -1.2787990458 0.7977134225 0.671877333
C -1.4771692877 -1.2806318478 -0.4704421474
H 1.1624471076 1.7486577729 0.8112377639
H 2.2864315711 1.5171191473 -0.5363113171
H 0.66471149 2.16300342 -0.8242767589
H 0.7897004378 -0.2390177969 -1.4803615336
H 1.2399955998 -1.982295511 0.1893155608
H 1.3887400417 -0.7676867346 1.4669399618
H 2.5867034665 -0.8439177273 0.1740080974
H -2.5392844703 -1.1752784272 -0.2668966349
H -1.099820507 -2.1437614418 0.0731217242
H -1.3115929047 -1.448800445 -1.5302190733
*
