! pbe def2-sv(p) def2/J RI DEFGRID1 loosescf d4 GCP(DFT/SV(P)) printgap
%output
    printlevel normal
end
* xyz 0 1
C -2.5404128468 -0.9106886264 0.2778983163
C -1.1172026683 -0.4722941006 0.6317810617
H -1.0189512938 -0.4316251231 1.7294247882
C -0.8283799709 0.9318171652 0.0554538014
H -1.0781570129 0.9312571628 -1.0104719106
C 0.6564748991 1.2773148774 0.2191403146
H 0.8872752312 1.3809453055 1.2947197939
C 1.5222084646 0.1420475667 -0.3354961789
H 1.3438976911 0.0557625013 -1.4183875213
C 1.1203711966 -1.1828181071 0.340846973
H 1.3382024812 -1.1072684863 1.4220878318
O -0.2371112107 -1.45451952 0.122233458
O 1.8612832681 -2.2464365284 -0.1448480094
O 2.8685052959 0.4552694734 -0.0763273714
O 0.9141848214 2.489928321 -0.4404019086
O -1.6681774301 1.8877740995 0.6440810583
O -2.6787169083 -0.9319077811 -1.122833799
H -3.2328370578 -0.1910497372 0.7298904753
H -2.7060763953 -1.9093395558 0.6988684237
H 1.4126222828 -2.6076517048 -0.9260847942
H 3.4150259443 -0.3227333625 -0.2651678265
H 1.8723188422 2.6381121124 -0.4420234037
H -1.3304773328 2.1341106844 1.5177175064
H -3.5841628972 -1.1894238886 -1.3458953483
*
