! pbe def2-sv(p) def2/J RI DEFGRID1 loosescf d4 GCP(DFT/SV(P)) printgap
%output
    printlevel normal
end
* xyz 0 1
C 1.678230645 1.422031105 -1.0833297809
C 3.0514018827 1.5411165363 -1.1855788472
C 3.8761180539 0.7438945371 -0.4065943762
C 3.316005764 -0.1696744896 0.479974269
C 1.9411741121 -0.2943708202 0.5777709105
C 1.1114159857 0.4969935158 -0.2100967378
C -0.3555359011 0.3772339738 -0.1128411964
C -1.1211730673 1.5193122536 0.1014202988
C -2.4993719449 1.4441952985 0.2026478491
C -3.1482012479 0.2170310272 0.0827085278
C -2.3938723242 -0.9309911026 -0.1484052867
C -1.0062052157 -0.8519266056 -0.2448155054
Cl -0.1205356315 -2.2911445791 -0.5869110257
Cl -3.1888234631 -2.4492167305 -0.3194775454
Cl -4.8617067573 0.1120373411 0.2102226975
Cl -3.4233914899 2.8694371604 0.4801698562
Cl 4.3358384453 -1.1619919478 1.4709158179
Cl 5.5967413832 0.8887112658 -0.5362142534
H 1.0410489203 2.0350972321 -1.6990392786
H 3.4936557281 2.2484514187 -1.8671853616
H 1.5249178891 -0.995405317 1.2817626908
H -0.6327421796 2.4739639984 0.2076976701
*
