! wb97x-v def2-tzvp def2/J RIJCOSX DEFGRID2 scfconv7 GCP(DFT/TZ) printgap
%output
    printlevel normal
end
%cpcm
    smd true
    smdsolvent "water"
end
* xyz 0 1
C -2.565596127636854 -4.281355690121432e-06 -0.00031926176225342335
C -1.8733013486558905 -1.2101785706921877 7.061820930145049e-05
C -0.485186466749682 -1.220944167849046 0.000611306575496556
C 0.18315692719002105 1.0911005744287222e-05 0.0007781547873259882
C -0.4851969758475521 1.22096154099918 0.0004167324444695435
C -1.873315348913951 1.2101787036990432 -0.00013131391526371622
N 1.647398886616051 -1.9686736182994168e-05 0.00012081221452907032
O 2.2319737051631803 -1.0827554731411169 -0.0009374646385389852
O 2.232025569116888 1.082736724403253 -0.0008522547332512608
H -3.6504955894112703 -1.148434773041101e-05 -0.0008620957278268609
H -2.415617000293401 -2.149211457758637 -0.0001941259591418961
H 0.06829486679905147 -2.1512098035202674 0.0007402607495470211
H 0.06828280270869315 2.151236932244768 0.000388274256377885
H -2.4156436626769446 2.1492056274466456 -0.0005568673143390292
*
