! pbe def2-sv(p) def2/J RI DEFGRID1 loosescf d4 GCP(DFT/SV(P)) printgap
%output
    printlevel normal
end
* xyz 0 1
C -1.7472256196 -1.0184454226 -0.7187884495
C -1.0607472333 -0.4840088618 0.545235385
H -1.7623453695 -0.5953010934 1.3803081988
C -0.7183855616 1.0084288583 0.4267726213
H -1.5781356127 1.5117322991 -0.0265436513
C 0.5225193644 1.2495602514 -0.4551521877
H 0.8226783904 2.2978926179 -0.2857151828
C 1.6812092683 0.3430090507 0.0104193267
H 2.4679568197 0.3332895899 -0.7573398595
C 1.2374418469 -1.1200250599 0.1801268605
H 1.9969742508 -1.6202959495 0.8027302447
O 0.0622139127 -1.2701096871 0.9307417267
O 1.1626503299 -1.6975221665 -1.0849286444
O 2.1894035161 0.7606462275 1.25515236
O 0.1825158319 1.0531783351 -1.8010978161
O -0.5378936417 1.5961525892 1.691821595
O -3.0182071671 -0.411800269 -0.8040510749
H -1.8468025139 -2.1074351008 -0.6147007159
H -1.1376469943 -0.7859208894 -1.5964175584
H 1.0157549203 -2.6516107674 -1.0046311758
H 2.6646111749 1.5986032158 1.1525085229
H 0.934151112 1.2763367133 -2.3692076246
H 0.2116830511 1.1577101194 2.1292023912
H -3.4195050962 -0.6438842153 -1.653070045
*
