! wb97x-v def2-tzvp def2/J RIJCOSX DEFGRID2 scfconv7 GCP(DFT/TZ) printgap
%output
    printlevel normal
end
* xyz 0 1
C -2.581781453872522 -0.6110888890332965 -0.3123538505424513
C -1.2050831069761014 -0.2694144609252489 0.2206317209814404
H -1.225817844236289 -0.2426077005513576 1.3223278343567437
C -0.6879906328700771 1.0647910001844414 -0.3139101600114107
H -0.7048296379412912 1.0356773446740797 -1.4164876665981594
C 0.7495009485826405 1.2968718182926775 0.15198524630855537
H 0.7474138101865226 1.4245533037666978 1.2423801199310052
C 1.633332462960528 0.10791378964021785 -0.20038972438243977
H 1.7203920082957502 0.0191998493653517 -1.2952115907981934
C 0.9927097959902361 -1.1730254163149467 0.3311163146774592
H 0.9233304169905008 -1.1436985489478282 1.4310867530918472
O -0.3210168165014755 -1.314488226842924 -0.22166197980096555
O 1.7639181372822892 -2.2617415721456733 -0.10195755027789594
O 2.914115384882064 0.3201575423778792 0.39484291520280473
O 1.2591607808562686 2.526807054493204 -0.37532488821192317
O -1.5450473168178291 2.1014900303545088 0.1699586983287846
O -3.0868378775146414 -1.8288004521679688 0.2479159440274273
H -2.540536900122509 -0.6734025582266728 -1.4095552883106677
H -3.2849161554653974 0.1770243100692505 -0.03359123026401034
H 1.5791708608011656 -3.0151922127150725 0.4747316420769674
H 3.496865189345819 -0.384783428342594 0.08196489543050804
H 1.2887154520339659 2.4432881604614765 -1.3401125095182609
H -1.1287860769040274 2.9418533087403906 -0.06975079258677028
H -2.483967752206405 -2.5358690679767513 -0.0177123371833211
*
