! wb97x-v def2-tzvp def2/J RIJCOSX DEFGRID2 scfconv7 GCP(DFT/TZ) printgap
%output
    printlevel normal
end
%cpcm
    smd true
    smdsolvent "water"
end
* xyz 0 1
C -1.612704764682691 -0.12476337225765444 0.475563056100896
C -0.6630223778447841 0.5073396222630651 -0.5390273015996634
C 0.6835939271564346 -0.19517616156700107 -0.6204638918259777
O 1.4432724408090136 -0.10335490409865673 0.6031284171264821
H -1.7891448658373388 -1.1808989959487814 0.2414171352307692
H -1.2147683584496642 -0.06618636867562913 1.4948871971178144
H -2.580917893644611 0.38537599301208475 0.4768074977840845
H -0.5004837176886383 1.5656603198319738 -0.2995899444525747
H -1.1132130467113057 0.472067578561123 -1.539348606002202
H 0.5438297433331613 -1.2516479682661108 -0.8935352949756963
H 1.3084039806559724 0.27184433429454863 -1.3880193138814787
H 0.966430870423491 -0.6005455595354979 1.279374830895422
*
