  5
        -16.65493246
 C          0.4408244547       -0.0000283247       -0.4025472857
 F          1.0397752339        1.0763398508        0.1259379901
 F          1.0402880057       -1.0760831213        0.1259750461
 Cl        -1.2801943850       -0.0001242130        0.0438245495
 H          0.5696222660       -0.0001324830       -1.4929104758
