! pbe def2-sv(p) def2/J RI DEFGRID1 loosescf d4 GCP(DFT/SV(P)) printgap
%output
    printlevel normal
end
* xyz 0 1
C -3.5248318458 -0.0993173895 -0.2752353786
C -2.022055915 0.0352837467 -0.5123617184
H -1.8705309003 0.50288401 -1.490745045
C -1.3230422795 -1.3374707352 -0.4997358059
C -0.3375388565 -1.490676127 0.6571238955
C 0.7121981526 -0.3711164058 0.7205242195
H 1.0516315361 -0.308806475 1.763921781
C 0.0798626645 0.9759526197 0.4629770941
O 0.7141618267 1.9896230084 0.2353855876
C -1.4193260341 0.9769258016 0.5443158241
C 1.9913703527 -0.6362903565 -0.1122875844
C 1.842967125 -0.2857980957 -1.5914980021
C 3.1781930025 0.1271627967 0.4772814415
H -3.7168933425 -0.5789993626 0.6816645725
H -4.000702549 0.8783950003 -0.2727498516
H -3.9778723079 -0.6981956524 -1.0613065115
H -2.0718459548 -2.1266875045 -0.4185324061
H -0.7999444525 -1.4906957303 -1.4426397829
H -0.8982564374 -1.5061125379 1.5932984255
H 0.1701201371 -2.4523127089 0.5710336801
H -1.713153692 0.6372815633 1.5385892475
H -1.7877529413 1.9933649833 0.3977595401
H 2.2063118125 -1.7083605874 -0.0350361618
H 1.0626467424 -0.8729088236 -2.0657780992
H 2.7777167228 -0.4861660042 -2.1099987384
H 1.6092295405 0.7694797127 -1.7114805635
H 3.357679853 -0.1689377402 1.5087016434
H 2.984460438 1.1966325278 0.4509315611
H 4.078637207 -0.0740364681 -0.0981076804
*
