! pbe def2-sv(p) def2/J RI DEFGRID1 loosescf d4 GCP(DFT/SV(P)) printgap
%output
    printlevel normal
end
* xyz 0 1
C -1.3683028033 -0.0339574702 -0.4243536733
C -0.7703032421 1.3016516725 0.0352825632
C 0.7322889212 1.1340823879 0.3511678597
N 1.342691754 0.0259213199 -0.3609480094
C 0.7743218337 -1.2468994775 0.0671460227
C -0.7396649434 -1.1814996087 0.3620872308
H -1.1770412388 -0.1845123563 -1.490000461
H -2.4501477648 -0.0257009963 -0.2850951464
H -0.9105323915 2.0502947734 -0.746446387
H -1.2890220764 1.6524819644 0.9283345118
H 1.2792393567 2.0449856549 0.0988181837
H 0.8753483344 0.9416394221 1.4178185988
H 1.1841571266 0.1557352034 -1.3552674195
H 0.9812208801 -1.9834145123 -0.7111938028
H 1.3108126086 -1.5564513834 0.9708361706
H -1.2106414349 -2.1285521609 0.0980419362
H -0.9067871115 -1.0094755004 1.4267937755
*
