! pbe def2-sv(p) def2/J RI DEFGRID1 loosescf d4 GCP(DFT/SV(P)) printgap
%output
    printlevel normal
end
* xyz 0 1
C -1.6567535788 -1.3543121651 -0.5973504988
C -1.1340421391 -0.5036756656 0.5697063707
H -1.9042837129 -0.508202313 1.3488004562
C -0.8741623775 0.9596206652 0.146561411
H -1.2211639909 1.1065163544 -0.8812304404
C 0.6286997516 1.2727482471 0.2127508975
H 0.9287214697 1.3832146856 1.2685283249
C 1.4376405883 0.1202428143 -0.3876832176
H 1.1178694861 -0.0432148714 -1.4273723193
C 1.1763705282 -1.1600415431 0.4212742573
H 1.9845708892 -1.258091792 1.1600618652
O 0.0022493238 -1.0855723497 1.1970611717
O 1.1603144427 -2.2399983469 -0.4550718722
O 2.8152805615 0.3793501315 -0.3404358967
O 0.9490381646 2.4408482662 -0.5027234319
O -1.6036694162 1.8920182173 0.9062395425
O -2.8836795113 -0.80380848 -1.0151676286
H -1.7868544516 -2.3821437128 -0.2373902745
H -0.925156787 -1.3562377615 -1.4140944731
H 1.2364971679 -3.0736199319 0.0337652116
H 2.9693695104 1.2521908289 -0.7364451509
H 0.3275981545 3.140549695 -0.2522887384
H -1.4238169775 1.7621376283 1.8491375672
H -3.2486448108 -1.3453708151 -1.7291173392
*
