! pbe def2-sv(p) def2/J RI DEFGRID1 loosescf d4 GCP(DFT/SV(P)) printgap
%output
    printlevel normal
end
* xyz 0 1
C -2.6577337552 0.9106104307 0.9374932407
C -1.285027798 0.6170132415 0.3389751013
H -0.5136540372 1.0058267385 1.0157030735
C -1.0864482174 1.2594736226 -1.0344078316
C 0.3711449559 1.1518506584 -1.4925124931
C 1.0512865645 -0.152917244 -1.0176509551
H 1.7187463893 -0.4955330159 -1.8169657699
C -0.0125896883 -1.2362851715 -0.8210732329
C -1.0344296136 -0.8684025415 0.219984533
O -1.6225128564 -1.7019707994 0.8842670609
C 1.9373522112 0.049600875 0.2032941838
C 2.8255162998 1.0326886425 0.2512399019
C 1.8630570434 -0.9519812623 1.3169630808
H -3.4418048903 0.597500702 0.2512962322
H -2.7840933921 0.3609975919 1.8673102699
H -2.767824448 1.9729021079 1.1356890933
H -1.7525094609 0.7710119268 -1.7485250335
H -1.376094201 2.309495381 -0.9866160641
H 0.4035958327 1.2069333301 -2.5809078996
H 0.9254893577 2.0046735003 -1.1051976941
H -0.5630145454 -1.357704498 -1.7586015535
H 0.4209743628 -2.2071086779 -0.5808335632
H 3.4762277803 1.1613885811 1.0989611407
H 2.9554539037 1.7418092066 -0.5479493805
H 2.5103652014 -0.6517822885 2.1366692307
H 0.8506192292 -1.0635273952 1.7001834972
H 2.1917175373 -1.9289950792 0.9640009913
*
