! r2scan-3c def2/J RI DEFGRID2 scfconv6 printgap
%output
    printlevel normal
end
%cpcm
    smd true
    smdsolvent "water"
end
* xyz 0 1
C -4.2216419476 -0.3135464879 -0.0714799683
C -2.7392913262 -0.1100944074 -0.0219304738
C -1.9396378354 -0.9303439336 0.7671907487
C -0.5717212787 -0.7449564658 0.8280748983
C 0.0285965708 0.2765166983 0.0981413022
C -0.7670246528 1.1161475759 -0.6716288297
C -2.1334408022 0.9151342723 -0.7382887766
C 1.4915564113 0.5536586077 0.2127370129
O 1.8831733726 1.6355647579 0.6673775057
N 2.3402156075 -0.4069103932 -0.1793698387
C 3.7672299792 -0.2253452547 -0.0235622966
C 1.9518891585 -1.6442805756 -0.8160475132
H -4.4661465935 -1.3722500399 -0.0397180863
H -4.6874896461 0.1647529844 0.7896732647
H -4.6430873787 0.1241799313 -0.9721642158
H -2.3953517283 -1.7240679289 1.3403092756
H 0.0336097114 -1.3850199792 1.4523145225
H -0.3034484965 1.9238559844 -1.2191988371
H -2.7370236632 1.568463591 -1.3508224388
H 4.1810604256 -1.046018831 0.5628597225
H 3.9390516239 0.7174204576 0.4919380453
H 4.2536848659 -0.1979010737 -0.9995984245
H 2.5576726324 -1.7854593032 -1.7119979445
H 0.9032510975 -1.6163544672 -1.0968407812
H 2.1239701165 -2.4864789167 -0.1428039698
*
