! r2scan-3c def2/J RI DEFGRID2 scfconv6 printgap
%output
    printlevel normal
end
%cpcm
    smd true
    smdsolvent "water"
end
* xyz 0 1
C -2.6218514674 -1.4567465854 -0.0040857855
O -2.2180088778 -0.1024888127 -0.0160830818
C -0.8772987859 0.1832678812 -0.0084563777
C -0.5523551427 1.5401076598 -0.0300784489
C 0.7743621958 1.9224201055 -0.0227447693
C 1.7840508309 0.9801354124 0.0071125948
C 1.4706378128 -0.3796136186 0.0290866054
C 0.1274487896 -0.7689646044 0.0239936374
N 2.4623902105 -1.3303083425 -0.0131394947
H -2.2845037525 -1.9619795403 0.9051904053
H -2.2494900464 -1.9884459632 -0.8839929852
H -3.7091664509 -1.4316662932 -0.0253618744
H -1.351316291 2.2634454786 -0.0514734962
H 1.0239560681 2.9728462165 -0.0376656465
H 2.8183554154 1.288918029 0.0112304231
H -0.1026472151 -1.8226893824 0.0411565539
H 3.3821984649 -1.0269156899 0.2588878024
H 2.2104494498 -2.2587001808 0.2815704813
*
