! pbe def2-sv(p) def2/J RI DEFGRID1 loosescf d4 GCP(DFT/SV(P)) printgap
%output
    printlevel normal
end
* xyz 0 1
C -2.5517517168 -0.7004504647 -0.3371160741
C -1.175758001 -0.3136077797 0.2182031597
H -1.2201110524 -0.2966634149 1.3199125082
C -0.7243913998 1.0624370707 -0.2957431991
H -0.7408796895 1.0585953226 -1.3912871419
C 0.7118041862 1.3379258536 0.176408228
H 0.7187284611 1.4354358872 1.2760878671
C 1.64105711 0.1775807281 -0.2036404497
H 1.7161430687 0.1392030203 -1.3016413178
C 1.0471049115 -1.1519456345 0.3008876645
H 1.0454979753 -1.1398027176 1.4029516461
O -0.2646535539 -1.3163800345 -0.1964621066
O 1.7813498592 -2.2546449244 -0.064673371
O 2.9098048324 0.3287426928 0.3739436822
O 1.2310733836 2.5093939585 -0.4069479272
O -1.5877567625 2.09957263 0.089451556
O -3.1046255399 -1.8027341507 0.3309221076
H -2.4460600375 -0.9025958199 -1.4094809472
H -3.2446815086 0.1302046809 -0.1938269022
H 1.7782528425 -2.3503142022 -1.0306424256
H 3.2605891838 1.195443086 0.1156870863
H 0.5481512949 3.1973773232 -0.3869723786
H -1.6912084873 2.1051570606 1.0530193603
H -2.5101212117 -2.5592145484 0.2226404489
*
