! wb97x-v def2-tzvp def2/J RIJCOSX DEFGRID2 scfconv7 GCP(DFT/TZ) printgap
%output
    printlevel normal
end
* xyz 0 1
C 2.924494197409857 0.00032240679069957457 -0.8378342258745329
C 2.5186294192335414 -1.1377541877021964 0.1051136159406623
H 2.65688002505439 -2.1632428354987403 -0.23844477874892758
C 1.0848684542447582 -0.786296624688856 0.5959838162605451
H 0.9695156274990846 -1.1897107598955678 1.6066779117975087
C 1.0848369569204643 0.7864015140325074 0.5960400942237946
H 0.969208419383893 1.189747345488151 1.6067275841520394
C 2.518648512687378 1.1380159163398686 0.10553661414197911
H 2.656941800487887 2.163636108769045 -0.23761242735227803
C 3.2980095482758793 0.7335840292782397 1.3741976590435525
H 3.2651376021692817 1.340778126000811 2.274336149077425
C 3.298062874274892 -0.7338091199489617 1.3738943929438254
H 3.265218141049493 -1.3413746557451764 2.273783819638757
O 4.52397414634403 -3.603582646321397e-05 1.1542185962246705
C -0.2700226039307236 1.1266401057530346 -0.11536967715364602
C -1.2898212472330475 0.6691629041400105 0.9396642992208436
C -1.2898135223353475 -0.6687855526809373 0.9398908105895988
C -0.27012020767708406 -1.1266173870232772 -0.11508431398309169
C -0.5670104105653705 -0.00014298064561315172 -1.1592450423625777
Cl -2.3125252723769543 -5.8614248375893486e-05 -1.6916880782242598
Cl 0.3296659479579717 -0.0006010757358793516 -2.6904486853251326
Cl -0.4442518212766144 -2.7867573903073413 -0.7046615330592925
Cl -2.1211776695935316 -1.7269746011056455 1.9865505292001142
Cl -2.1211892856815324 1.7277171215961744 1.985950086862294
Cl -0.44396604104356646 2.7866081020531124 -0.7054600233288887
H 2.417152950585847 0.000583263514411627 -1.7870559845218923
H 3.997663839467985 0.0003286247921611108 -1.0282217116998058
*
