! wb97x-v def2-tzvp def2/J RIJCOSX DEFGRID2 scfconv7 GCP(DFT/TZ) printgap
%output
    printlevel normal
end
%cpcm
    smd true
    smdsolvent "water"
end
* xyz 0 1
C -3.6531918476382215 0.04192765194590001 -0.030428411647803737
C -2.155275765676079 0.008335490743714927 -0.03048574834246564
C -1.4136565154633285 1.1949509215898668 -0.06372787963848654
C -0.026614562966210304 1.170802209138313 -0.09633866805772368
C 0.6638015092892114 -0.049629611438725366 -0.09522750014169497
C -0.07671317273920768 -1.239537477018012 -0.056894641861276074
C -1.4615262927017545 -1.2087064460935895 -0.023326292165316054
C 2.145130079901959 -0.11355349780006455 -0.1343719163608699
O 2.726732341926863 -1.2014648439456408 -0.15397469622655297
C 2.9285158049188915 1.1678484404377147 -0.15161432488478016
H -4.029409127671986 0.1626021786591727 -1.0537494175153048
H -4.0720443063663065 -0.8849366067385882 0.3689590338699901
H -4.030503124893266 0.8857559955263602 0.553895453415045
H -1.9345065794838119 2.1482642889878414 -0.0636361130832467
H 0.5163710867701693 2.1090955466593004 -0.1211946930393544
H 0.44611600863931833 -2.1899663115484698 -0.05003663517343913
H -2.020853980985978 -2.139375532232642 0.009815478671649414
H 2.685042716492905 1.7817769440405615 0.7217822291112358
H 2.673781730231368 1.7574208426471392 -1.0390900944635113
H 3.9956083453117883 0.9439722997935709 -0.15731654345166873
*
