! r2scan-3c def2/J RI DEFGRID2 scfconv6 printgap
%output
    printlevel normal
end
%cpcm
    smd true
    smdsolvent "water"
end
* xyz 0 1
C -2.6156757167 1.5603689049 0.1135511233
C -1.9672868125 0.186346394 -0.0092580442
C -0.4561616375 0.1806849678 0.011562178
C 0.3020146963 1.3355585535 0.1356068777
C 1.686146768 1.2975466258 0.1515507737
C 2.3442654403 0.086407445 0.0419978712
C 1.6129517996 -1.0788460768 -0.0827363401
C 0.2239131234 -1.0394312655 -0.0984793183
O -0.4200412118 -2.237475842 -0.2248876101
H -2.3439679505 2.0358950031 1.05262997
H -3.6975918645 1.452822483 0.0875097954
H -2.3182616543 2.2053496849 -0.7094793162
H -2.304933651 -0.2664652267 -0.9479623972
H -2.3298825655 -0.4360646202 0.8161908395
H -0.1907876456 2.2901162303 0.2222938241
H 2.24682477 2.2145278868 0.2495065974
H 3.4225786106 0.044491306 0.0531870993
H 2.0957791511 -2.0398319606 -0.1702258151
H -1.3800711287 -2.1165472925 -0.2273943929
*
