! r2scan-3c def2/J RI DEFGRID2 scfconv6 printgap
%output
    printlevel normal
end
* xyz 0 1
C -2.0982372321 0.1069084812 0.0001278951
C -0.7135497417 0.6705075247 -0.0001663359
C 0.4432066907 0.0194069576 -0.0002208693
C 1.7494529033 0.7622804805 0.000133948
C 0.6042350841 -1.472045257 4.6039e-06
H -2.6374661766 0.4545318617 -0.8809276007
H -2.1071666306 -0.9782171024 0.0041962554
H -2.639235654 0.4608211354 0.8775381034
H -0.6884957229 1.7544645653 -0.0009724011
H 2.3319737543 0.4994357227 -0.8821694046
H 1.5929794811 1.8376797859 0.0059844838
H 2.3364952089 0.4902484624 0.876579857
H 1.1820511749 -1.7803712975 -0.8705686514
H 1.153372676 -1.7831570739 0.8880950249
H -0.3470498327 -1.9928312563 -0.0163166972
*
