! wb97x-v def2-tzvp def2/J RIJCOSX DEFGRID2 scfconv7 GCP(DFT/TZ) printgap
%output
    printlevel normal
end
* xyz 0 1
C -2.6913830811035693 0.8741813921878574 0.010974890934238096
C -1.6686749624163308 -0.10936206489789148 -0.5548307932277291
C -0.5875934695123576 -0.5096857343527129 0.473115231790191
C 0.8700032489767786 -0.16556068496007148 0.1008758754058693
C 1.287265802093239 -0.9016146776914222 -1.1779283923633173
C 1.031263540680996 1.3469299608790017 -0.09393009268026399
C 1.7778067599633889 -0.6175509131732028 1.251593507763457
H -2.2019202304768046 1.7975315417445739 0.34243389848263023
H -3.4477730065277434 1.1436247257019037 -0.7343656795750584
H -3.210712198957611 0.44626784711435685 0.8760529411613011
H -2.1909100340148018 -1.002933846342945 -0.9154107115412077
H -1.2023831764952582 0.33838476554058217 -1.4393825680567072
H -0.6373552344714823 -1.5887518184680727 0.667486678382348
H -0.8079372376070599 -0.018614459553834964 1.4312119748037198
H 0.6862174534303696 -0.5929363818011232 -2.039921509767494
H 2.3372435787132404 -0.6948305385044814 -1.4156397975734607
H 1.1750572316501025 -1.9857529772950069 -1.0576491135390207
H 0.747170427796591 1.8899946985457996 0.8151955580889694
H 0.41400273787528225 1.7198718378889768 -0.9186621010379219
H 2.074041647094875 1.5953577964045664 -0.3236704085305296
H 1.512922040820784 -0.10597835119561048 2.1844176532215283
H 1.6886984367582505 -1.69721329818184 1.4202322880377323
H 2.8283049728374223 -0.39563966564717146 1.0308039433381855
*
