  20
        -25.64903256
 C         -2.3323296560        1.2369088676        0.0530701416
 N         -1.6048532642       -0.0001669793       -0.1154169706
 C         -2.3319630368       -1.2369793796        0.0567111689
 C         -0.2346264693        0.0000232347       -0.0422617919
 C          0.4977941690       -1.1974731401       -0.0204107855
 C          1.8774869138       -1.1902832395        0.0119118424
 C          2.5844329630        0.0000628072        0.0287164294
 C          1.8773846864        1.1903750395        0.0138147737
 C          0.4976881244        1.1975393212       -0.0184145687
 H         -2.1348938670        1.6999802945        1.0264651903
 H         -3.3976877716        1.0390575693       -0.0254099889
 H         -2.0627644954        1.9446478883       -0.7330358708
 H         -3.3976127260       -1.0388857482       -0.0168687224
 H         -2.1301671057       -1.6994634911        1.0294525040
 H         -2.0661923128       -1.9453545566       -0.7301790651
 H         -0.0082239052       -2.1484417270       -0.0282508456
 H          2.4084995968       -2.1318501970        0.0276890008
 H          3.6636635176        0.0001115089        0.0562349582
 H          2.4083524645        2.1319415612        0.0314690625
 H         -0.0083515705        2.1485096900       -0.0243606930
  20
        -25.64810034
 C         -2.3785878839       -0.9868055571        0.6688345680
 N         -1.6056306058       -0.0882662066       -0.1619559389
 C         -2.3210517341        1.1182477429       -0.5153460504
 C         -0.2289768032       -0.0416514657       -0.0500478184
 C          0.5200136369       -1.1825631274        0.2749038614
 C          1.8984718217       -1.1503322628        0.3155196271
 C          2.5924285712        0.0153006529        0.0367856060
 C          1.8718338851        1.1514198293       -0.2853365647
 C          0.4913208500        1.1297742918       -0.3269511550
 H         -3.3612511668       -1.1213063427        0.2186599394
 H         -2.5091634429       -0.5894020336        1.6834184178
 H         -1.9066068820       -1.9608991272        0.7369015600
 H         -2.2904686343        1.8763275782        0.2772247055
 H         -3.3609628742        0.8588132707       -0.7035520025
 H         -1.9073343127        1.5397940874       -1.4298202261
 H          0.0296248499       -2.1189066488        0.4867165923
 H          2.4387645487       -2.0519429954        0.5672322911
 H          3.6710092156        0.0366845031        0.0718357421
 H          2.3896669140        2.0754559269       -0.5007902373
 H         -0.0220726334        2.0457674721       -0.5676428565
  20
        -25.64110358
 C         -2.2737781798        0.3377474699       -1.1650179410
 N         -1.6487701297        0.2715082643        0.1426685094
 C         -2.2607568235       -0.7329191211        0.9921981475
 C         -0.2242764692        0.1247227877        0.0626697433
 C          0.3909709276       -0.9837222644       -0.5088941584
 C          1.7709424263       -1.0670028532       -0.5570058602
 C          2.5487511939       -0.0466596529       -0.0362494287
 C          1.9411664578        1.0589702339        0.5344686851
 C          0.5607626142        1.1444622934        0.5841092240
 H         -3.3188655811        0.6160770019       -1.0342761050
 H         -2.2331637805       -0.6126690371       -1.7181569679
 H         -1.7747598734        1.1058032493       -1.7531495123
 H         -1.7532997500       -0.7339135858        1.9552525833
 H         -2.2170146349       -1.7480127931        0.5692046438
 H         -3.3062731947       -0.4669216025        1.1438004637
 H         -0.2088726766       -1.7845941057       -0.9174869570
 H          2.2403869589       -1.9318321196       -1.0025506171
 H          3.6254228279       -0.1145089105       -0.0755957834
 H          2.5438918125        1.8568606345        0.9416572527
 H          0.0739946687        1.9997286197        1.0255156910
