! pbe def2-sv(p) def2/J RI DEFGRID1 loosescf d4 GCP(DFT/SV(P)) printgap
%output
    printlevel normal
end
* xyz 0 1
C -2.4882618084 -0.4667419952 -0.2028758183
C -1.0479823922 -0.1948139233 0.2371659854
H -0.9653258842 -0.3831909699 1.3186162586
C -0.6268191651 1.2638691607 -0.0481808856
H -1.2126069583 1.6633627729 -0.8835026615
C 0.8644519055 1.3025998739 -0.4594483668
H 1.2460033881 2.3070276222 -0.2471034209
C 1.6547574686 0.2813820905 0.3789797716
H 2.6986252427 0.2900720094 0.0460974575
C 1.1030854032 -1.1402555881 0.1061444296
H 1.0506498739 -1.6834720337 1.0733001784
O -0.1978528741 -1.1039345474 -0.4499302787
O 1.9422969662 -1.7716137606 -0.7882011341
O 1.5237354759 0.6396085652 1.7324749926
O 1.0498486084 1.1040342313 -1.833360912
O -0.8965090441 2.1015522436 1.04266262
O -2.9577344744 -1.7192549977 0.2242660068
H -2.5491889925 -0.3782576665 -1.2941344198
H -3.135867626 0.2812842109 0.2573592704
H 1.5838436498 -2.6394783237 -1.0321554548
H 2.2752620027 0.3125120587 2.2459299062
H 0.7930076586 0.1972965313 -2.0622696909
H -0.288269896 1.875127028 1.7652973388
H -2.4139861537 -2.4085094281 -0.1835405234
*
