! pbe def2-sv(p) def2/J RI DEFGRID1 loosescf d4 GCP(DFT/SV(P)) printgap
%output
    printlevel normal
end
* xyz 0 1
C -2.2700074637 -0.9452041383 0.7778985937
C -0.8159992449 -0.4396334015 0.7455550221
H -0.5358839976 -0.1256192807 1.7608660653
C -0.625214624 0.7368769268 -0.2169689403
H -0.7435583382 0.3531716984 -1.2427804374
C 0.8045882776 1.2909733832 -0.0673673339
H 0.7936801038 2.0545242829 0.7190907787
C 1.7904094735 0.1719390977 0.3462349798
H 2.7492158283 0.362444244 -0.1553672434
C 1.2738321029 -1.1778582755 -0.169742062
H 1.9549543658 -1.9786061252 0.1570704629
O 0.0228545044 -1.5253993848 0.3576969522
O 1.2428394089 -1.0885152577 -1.5651842774
O 1.957301445 0.0666833125 1.7354685804
O 1.2275304555 1.9489788753 -1.2352922256
O -1.6054776671 1.7102096137 0.0531901716
O -2.9235618707 -0.903584632 -0.4637846317
H -2.8199227064 -0.3612455184 1.5224062678
H -2.2467460547 -1.99376136 1.0802496761
H 0.9364440529 -1.929415469 -1.9380522613
H 2.4872957262 0.810272833 2.0590993989
H 1.3119745126 1.2973976315 -1.9484970059
H -1.4058580182 2.5049786084 -0.4635321416
H -3.113467163 0.022857615 -0.6745526476
*
