! r2scan-3c def2/J RI DEFGRID2 scfconv6 printgap
%output
    printlevel normal
end
%cpcm
    smd true
    smdsolvent "water"
end
* xyz 0 1
C -2.8306970821 1.0205570183 0.0002449357
O -2.2152944314 -0.2536416187 -5.55543e-05
C -0.8525315806 -0.3260620827 -0.0001448603
C -0.3135421911 -1.6125473569 -0.0001390769
C 1.0556141569 -1.7845790223 7.97232e-05
C 1.9063270188 -0.6942003942 0.0001811357
C 1.3718072532 0.5885278641 -2.90478e-05
C -0.0069246526 0.7757649827 -0.0001791643
O 2.2335006604 1.6401959856 -4.41989e-05
H -3.8997681686 0.8211936205 -5.03771e-05
H -2.563842271 1.5883688146 -0.8949772389
H -2.5640891752 1.5877661577 0.8959382629
H -0.9884976456 -2.4526344759 -0.0001745184
H 1.4677920452 -2.7813685198 0.0002851421
H 2.9774127141 -0.8126586889 0.000450513
H -0.4025168891 1.7796295884 -0.0002147314
H 1.7513103721 2.4810219697 0.0001638187
*
