! r2scan-3c def2/J RI DEFGRID2 scfconv6 printgap
%output
    printlevel normal
end
* xyz 0 1
C -1.3377945222 0.7772433929 -0.4103311206
C -1.5392809664 -0.6680707024 0.0377071624
C -0.12304213 -1.2403226329 0.0236758209
C 0.7967800004 -0.0739215846 0.4451919748
C -0.0739991331 1.1998423708 0.3395277702
O 1.9828872078 -0.0033531052 -0.318507689
H -2.1886943365 1.41286801 -0.1730254114
H -1.1739106115 0.8115905448 -1.488288075
H -1.9398551077 -0.687893689 1.0518714215
H -2.2141388056 -1.2215702591 -0.6125924155
H -0.011442804 -2.1022960823 0.6780811172
H 0.1455952792 -1.5504317292 -0.9878719765
H 1.1570378196 -0.2092310438 1.4689677349
H -0.3326449596 1.5483022632 1.3388448147
H 0.4721362634 1.9968508287 -0.1633296081
H 1.7482707972 0.1173534397 -1.2496958605
*
