! wb97x-v def2-tzvp def2/J RIJCOSX DEFGRID2 scfconv7 GCP(DFT/TZ) printgap
%output
    printlevel normal
end
%cpcm
    smd true
    smdsolvent "water"
end
* xyz 0 1
C 1.7209234916607414 0.43922876470580025 0.598540077886557
C 0.8945277665921404 0.35227508437301647 -0.6827370878505443
C -0.5613108541280796 -0.07336650290221858 -0.48030837843316654
H -1.0465643908583648 -0.09769808836754112 -1.4628764277589084
C -1.3466535571014102 0.8471773553002758 0.4404119049484364
O -0.6446583230366978 -1.444344912036885 -0.01158476234645704
H 1.7233892934602222 -0.5109691496581993 1.144582782052742
H 1.3474863412174622 1.2163451792394218 1.2723406137559679
H 2.7619028930459875 0.6803269186849746 0.36283197432294334
H 1.3597776663361287 -0.36060780006033605 -1.374136481270984
H 0.8926092793510692 1.326284310197881 -1.1878094526713798
H -0.9493850647480279 0.8135999102913397 1.460684896136882
H -1.292041049025354 1.882285365781995 0.08751993193366096
H -2.3986213878116986 0.5488393186919115 0.472911924958204
H -0.3241132678283113 -1.4538484187899965 0.9002772912295731
*
