! pbe def2-sv(p) def2/J RI DEFGRID1 loosescf d4 GCP(DFT/SV(P)) printgap
%output
    printlevel normal
end
* xyz 0 1
C -2.2085120016 -1.0088191941 -0.4123668068
C -1.1439875722 -0.259595991 0.3980557387
H -1.6289989998 0.1263815053 1.3039442057
C -0.5639313673 0.8982394778 -0.4246625894
H -0.3884967679 0.5724482381 -1.45608198
C 0.7813201683 1.32235304 0.1849190347
H 0.6387339993 1.5169811302 1.2632210347
C 1.7849857929 0.1722103138 0.0176525615
H 2.2227820285 0.2390296469 -0.9832208822
C 1.0576186458 -1.193096248 0.1267312315
H 1.7011269338 -1.8714445102 0.7042231752
O -0.1207833764 -1.1195875025 0.8931784842
O 0.8304672042 -1.6790117324 -1.1586071568
O 2.8640540563 0.2503899877 0.9070376597
O 1.2777041353 2.4812454177 -0.4333670585
O -1.4448545462 1.9857009338 -0.5191571191
O -2.9568087049 -1.8275450076 0.4567052699
H -1.7160487061 -1.5990885671 -1.1924517701
H -2.8501338506 -0.2530239733 -0.8849828204
H 0.6413538658 -2.6296819576 -1.1280756496
H 2.5406232712 0.32267209 1.8175563508
H 0.5214947434 2.9960077066 -0.7636278009
H -1.7201067019 2.267439288 0.3670418669
H -3.6163598273 -2.3165129578 -0.0548852101
*
