! r2scan-3c def2/J RI DEFGRID2 scfconv6 printgap
%output
    printlevel normal
end
%cpcm
    smd true
    smdsolvent "water"
end
* xyz 0 1
C 2.1078476375 0.0166872842 0.0002994674
N 0.6705126698 -0.0033883584 -0.0003678595
C -0.120388394 -1.115348697 -0.0002037043
C -1.4088776228 -0.6640953306 0.0002172956
N -1.4252920335 0.6964237023 0.0001323465
C -0.1653838418 1.0541620737 -0.000167681
H 2.4910249671 -0.4844696354 -0.8892712596
H 2.4481580408 1.0494489635 0.0057241563
H 2.4899543584 -0.4933877942 0.8851870329
H 0.2853602949 -2.1052256167 -0.0003749144
H -2.3224991871 -1.2241562226 0.0005130358
H 0.1729726208 2.0708188125 -0.0002376155
*
