! wb97x-v def2-tzvp def2/J RIJCOSX DEFGRID2 scfconv7 GCP(DFT/TZ) printgap
%output
    printlevel normal
end
* xyz 0 1
C 1.2747416086260952 1.0956440741233457 0.7983708251584728
C 0.7061005325831526 0.27923663929590725 -0.3758763073003202
C 1.5125643205063197 -1.000877907272833 -0.5966239804770116
C -0.7621596795184338 0.026169073338375454 -0.09895249513629747
O -1.621386956434067 0.7677698618125699 -0.5712610203368864
C -1.1347236073398104 -1.1273546754501875 0.7833835427814414
H 2.322317463466209 1.3393589831643375 0.5970940085370855
H 0.7244953204255805 2.030969159324098 0.937213628827107
H 1.2319347312862414 0.5229204295085789 1.7304763098015483
H 0.745184105273548 0.8999160142428804 -1.2782098317543393
H 1.5584382445786122 -1.608333947965084 0.31274886103697946
H 2.538199430586451 -0.7405882789793192 -0.8757470542976689
H 1.0868827712450209 -1.6109189601772615 -1.3994476193010685
H -1.0195836413609702 -2.0556147033627648 0.21007625993395798
H -2.1714028375960885 -1.0391849676536815 1.111655384179992
H -0.463497915149825 -1.204010242212686 1.6437586986500283
*
