! pbe def2-sv(p) def2/J RI DEFGRID1 loosescf d4 GCP(DFT/SV(P)) printgap
%output
    printlevel normal
end
* xyz 0 1
C -2.2935976436 -1.0501042966 -0.2628844718
C -0.9191087185 -0.5746435951 0.206639353
H -0.8414356693 -0.7286304488 1.2946891142
C -0.7321106537 0.9328363322 -0.0799005176
H -1.3262559032 1.2176094779 -0.958547494
C 0.7403871365 1.2500625321 -0.4012459144
H 0.9103281496 2.2926967655 -0.1002727959
C 1.6394267266 0.3320309988 0.4374933953
H 2.698553325 0.5124548156 0.2104495641
C 1.365045852 -1.1500806646 0.0472311352
H 1.5294385947 -1.7696653237 0.9455398891
O 0.0590206063 -1.3499311412 -0.450600449
O 2.24503413 -1.5997794854 -0.9195093817
O 1.4702665258 0.5528189941 1.8165546979
O 0.9581896169 1.070128404 -1.7780276224
O -1.0951628302 1.7007067453 1.0436828361
O -3.2575313349 -0.2311868976 0.3581370036
H -2.4178890121 -2.1024831968 0.0145110305
H -2.3351357078 -0.9625343153 -1.3551658403
H 1.9449669086 -1.2575938125 -1.7788196466
H 0.6351533813 1.027548287 1.9708856707
H 1.7339282402 1.5782787304 -2.0541762503
H -2.0355222319 1.5453133337 1.2267399149
H -4.1424763316 -0.5219367169 0.0968490281
*
