! pbe def2-sv(p) def2/J RI DEFGRID1 loosescf d4 GCP(DFT/SV(P)) printgap
%output
    printlevel normal
end
* xyz 0 1
C -2.0459576094 -1.3900375658 -0.1456614483
C -1.0187545033 -0.510228887 0.5927182181
H -1.4728209949 -0.18657966 1.5388842642
C -0.6461999347 0.7255147357 -0.2390767203
H -0.5548613728 0.4547095451 -1.2979412385
C 0.7147908377 1.250414827 0.2348934462
H 0.7002619469 1.3783418424 1.3304965058
C 1.7782720253 0.2024500621 -0.1181790457
H 2.008498094 0.2986755816 -1.1894625352
C 1.2290544801 -1.2214682559 0.1098964347
H 2.0039793697 -1.7890883947 0.6420783668
O 0.1305529026 -1.2561172428 0.9857652723
O 0.9297980948 -1.7779116371 -1.1309929054
O 2.9410768665 0.3434141564 0.6541311591
O 1.0474681538 2.4690328131 -0.3832540427
O -1.6340274925 1.7237119397 -0.1917146747
O -3.3079384351 -0.7749490574 -0.2108618257
H -2.1861806735 -2.3170216815 0.4145804971
H -1.6709058072 -1.6290005511 -1.148852173
H 0.8378495507 -2.7399044326 -1.0548312957
H 3.3051662167 1.2300739071 0.5094920668
H 0.2254937808 2.9428733227 -0.5917062031
H -1.8040521338 1.9771763452 0.7285735687
H -3.2233676444 0.0783042236 -0.6643309714
*
