! pbe def2-sv(p) def2/J RI DEFGRID1 loosescf d4 GCP(DFT/SV(P)) printgap
%output
    printlevel normal
end
* xyz 0 1
C -2.0736994008 -1.3796233973 -0.0836304281
C -0.9884691701 -0.523244394 0.5961753424
H -1.373667516 -0.1453903771 1.5530173345
C -0.627262237 0.6852803916 -0.2796098606
H -0.51478773 0.3704827859 -1.3274772852
C 0.7138844649 1.2583634232 0.1934686905
H 0.6357130522 1.4695453647 1.2738273882
C 1.816270904 0.215525587 -0.0416229061
H 2.2037538642 0.3542663317 -1.0557805166
C 1.243574963 -1.2213137578 0.0521060057
H 2.0092061138 -1.856373288 0.5185854172
O 0.149237412 -1.3118981575 0.9342129952
O 0.9239704685 -1.6623975589 -1.2290039221
O 2.9159554435 0.3792915383 0.8104977083
O 1.045516302 2.434603056 -0.4955169851
O -1.5964346937 1.6991006251 -0.1717774841
O -3.2836880953 -0.6697113398 -0.2072417394
H -2.2024321186 -2.3073758064 0.4827567155
H -1.7555438043 -1.6260954295 -1.0995467158
H 0.8500975268 -2.6290834766 -1.2464964486
H 2.621598482 0.3935921985 1.733595827
H 0.257115057 3.0006553035 -0.5145524459
H -2.4471967808 1.3392280619 -0.4731051249
H -3.7418760302 -0.657854204 0.6449145732
*
