! wb97x-v def2-tzvp def2/J RIJCOSX DEFGRID2 scfconv7 GCP(DFT/TZ) printgap
%output
    printlevel normal
end
%cpcm
    smd true
    smdsolvent "water"
end
* xyz 0 1
C -2.7683198248040597 -0.7810490758565788 -0.006638548381840615
O -1.798871139163722 0.2751805692258261 -0.025365652092197693
C -0.4718313668434955 -0.09016864883221014 -0.015870139511170805
C -0.012277269451386307 -1.4020624595575066 -0.010000802564075971
C 1.3614751857308944 -1.6637888170161643 -0.0006721156083515999
C 2.265614776921967 -0.6092455085873304 0.006251356928257502
C 1.803838463654151 0.7061759522375513 0.003730687279989838
C 0.43736961341335634 0.9919299904141964 -0.01033039086513685
N -0.03848347268759974 2.2990008888911575 -0.08337505770013554
H -3.7417083523962082 -0.28921840891098843 -0.005956461756109217
H -2.6652305623229413 -1.3931995496170664 0.8965966936116591
H -2.6773816222316604 -1.4136844619581292 -0.8970235340794568
H -0.7126897524955 -2.2285872728486567 -0.011681510985170868
H 1.7084128143752368 -2.6916016163482364 0.0032809186004230657
H 3.3337406259628812 -0.8008063761672122 0.01751007575738172
H 2.5072964361184713 1.5345385552179234 0.011822061058587274
H 0.6134367889279042 2.9840227328256734 0.27344033953129127
H -0.963602309318868 2.4229356326103293 0.30389731115379864
*
