! pbe def2-sv(p) def2/J RI DEFGRID1 loosescf d4 GCP(DFT/SV(P)) printgap
%output
    printlevel normal
end
* xyz 0 1
C -2.2564667602 -0.960893506 0.77292122
C -0.8142977884 -0.4431517933 0.7515457006
H -0.5341097144 -0.1337891887 1.7679942227
C -0.6376055273 0.7567372974 -0.1935781807
H -0.8099083432 0.4077409477 -1.2204831262
C 0.8035284455 1.2889908166 -0.0888939041
H 0.814214138 2.0764053984 0.6719141479
C 1.7784917376 0.1769770375 0.3546537274
H 2.7491636007 0.3893044704 -0.1139639066
C 1.2738680541 -1.1730641305 -0.1820319841
H 1.9502553284 -1.9882153767 0.1241190045
O 0.0247572589 -1.5258445963 0.3504687139
O 1.2405366427 -1.0693451238 -1.5751989554
O 1.8772390892 0.1813134742 1.754198953
O 1.2311596022 1.891021711 -1.280359837
O -1.5199215225 1.8027718757 0.1263958923
O -2.8286338907 -0.8590143088 -0.5129872324
H -2.8282979363 -0.3654615433 1.4947279058
H -2.2179056281 -2.0020893866 1.1089366447
H 0.9250813117 -1.9022621582 -1.9592383639
H 2.6111073856 -0.3825221569 2.040011603
H 1.2458669557 1.2174711384 -1.9793985695
H -2.4007414131 1.575197193 -0.205702853
H -3.6617059698 -1.3498071025 -0.5303084866
*
