! pbe def2-sv(p) def2/J RI DEFGRID1 loosescf d4 GCP(DFT/SV(P)) printgap
%output
    printlevel normal
end
* xyz 0 1
C -2.5343618478 -0.7072372845 -0.3947643238
C -1.1599566861 -0.3432707138 0.1639785984
H -1.2263327321 -0.3349963358 1.2635444887
C -0.7004772171 1.0454639564 -0.3332244017
H -0.6816636555 1.0470505753 -1.4284672105
C 0.7198518948 1.3238700826 0.1797733427
H 0.6977957231 1.4016046245 1.2806439683
C 1.6488529475 0.1607804138 -0.1889565158
H 1.7494561066 0.123750177 -1.2849467321
C 1.0407130106 -1.1708680283 0.2977379877
H 1.0075593367 -1.160668651 1.4021352889
O -0.2433199503 -1.3438103521 -0.2391412877
O 1.8263002537 -2.2486799404 -0.073503249
O 2.8974227666 0.3971004695 0.4131149266
O 1.1712532694 2.531904803 -0.376086986
O -1.6103627536 2.0469321484 0.0235292923
O -3.1490367419 -1.6266346719 0.4781169911
H -2.3913332231 -1.1412008225 -1.3903937128
H -3.1244698243 0.2140774821 -0.472032924
H 1.5350123771 -2.5650787259 -0.9431741675
H 3.4459917688 -0.396981802 0.324045382
H 2.1005711343 2.653887963 -0.1287369444
H -1.5369754184 2.2436567387 0.9690764693
H -3.9966853244 -1.9039348934 0.1028733912
*
