! wb97x-v def2-tzvp def2/J RIJCOSX DEFGRID2 scfconv7 GCP(DFT/TZ) printgap
%output
    printlevel normal
end
* xyz 0 1
C -2.668567416437265 -1.4424713830688434 0.0811568503579502
C -1.960289443508807 -0.09443310331654851 0.03416688438703648
C -0.45023755071621213 -0.13642976539810953 0.04114356071744169
C 0.2549274821904719 -1.3408984939358812 0.10101239428114679
C 1.6492859353333333 -1.3685904855848097 0.10276761766276056
C 2.3626501328521465 -0.1776767576024513 0.04395452149832367
C 1.6718013303391583 1.0312432992272453 -0.01416137347082849
C 0.2760645848085102 1.073461165128957 -0.0158665232539905
C -0.436168968645496 2.3945764476498392 -0.07832206835168877
H -2.4047316976993085 -2.0686225221582077 -0.777333228568264
H -3.752248741915559 -1.2931376694580148 0.06261386417508177
H -2.4246622527528325 -1.9980376250946374 0.9929466257143115
H -2.296004486715933 0.5199115327223197 0.8806029558638161
H -2.2873661455588175 0.4537623199870324 -0.8596735098955132
H -0.2871067000436132 -2.2793965565907643 0.1464092054999238
H 2.1702486081317676 -2.3202028644927246 0.14941151620373305
H 3.4483352452714255 -0.18493326378691108 0.04308305396125344
H 2.225872542428095 1.965316833661276 -0.05942252201522837
H -1.0884964098147745 2.539862883581937 0.7907846779545457
H 0.27931036429009193 3.2197286983493427 -0.10951834900901283
H -1.0767620394920971 2.4637386730011372 -0.9654404521697789
*
