  12
        -27.25245953
 C          1.6546309181       -1.2405624253        0.0110721260
 C          0.9508996919        0.0223661752       -0.4734023884
 H          0.9403254487        0.0765375579       -1.5677991405
 C         -0.5225398878       -0.0094620911       -0.0313493759
 F         -1.1790609332       -1.0853651883       -0.5010137934
 F         -0.6574360055       -0.0410297873        1.3075998767
 F         -1.2136883586        1.0644219734       -0.4502071386
 O          1.5433135222        1.2093716782       -0.0349655801
 H          1.6005204400       -1.3115761987        1.0953417134
 H          2.6953206608       -1.2039176194       -0.2951450983
 H          1.1862858745       -2.1184861896       -0.4236433085
 H          1.7509452532        1.1576801268        0.9117188495
  12
        -27.25168046
 C          1.8114235458       -0.0407103261        1.0030517178
 C          0.9750292212       -0.3435690650       -0.2370073092
 H          1.0460245621       -1.4083094773       -0.5098732306
 C         -0.5024347133       -0.0917769730        0.0627204268
 F         -1.2938539525       -0.3403577413       -0.9939096968
 F         -0.9556847989       -0.8811730326        1.0557801142
 F         -0.7584017578        1.1679684983        0.4410641258
 O          1.2713351490        0.4783493074       -1.3354614996
 H          2.8508808929       -0.2884364718        0.8134541872
 H          1.4561091986       -0.6316148430        1.8422165676
 H          1.7322239197        1.0154297709        1.2495118739
 H          2.2136443245        0.4022432703       -1.5523831048
  12
        -27.25052334
 C          1.6775300393       -1.2091333110        0.0464908878
 C          0.9403604579        0.0125646230       -0.4905970709
 H          0.9004945395       -0.0147295134       -1.5890891483
 C         -0.5220310738       -0.0221863670       -0.0164679138
 F         -1.1892128006       -1.0878113859       -0.4948615338
 F         -0.6529444535       -0.0568792045        1.3165659849
 F         -1.2101125284        1.0624179016       -0.4316147245
 O          1.5642670058        1.1721986514       -0.0203459139
 H          2.6985867767       -1.1876809803       -0.3189925228
 H          1.1877848352       -2.1192755458       -0.2851208831
 H          1.6934885415       -1.1743046275        1.1325292830
 H          1.2463858261        1.9628198773       -0.4808117235
  12
        -27.24987284
 C          1.8139192086        0.0072985728        0.9992158548
 C          0.9787897004       -0.3423278938       -0.2306011636
 H          1.0552280124       -1.4120412233       -0.4532896931
 C         -0.5063539480       -0.0904434756        0.0728467484
 F         -1.2926241956       -0.3478483165       -0.9899188938
 F         -0.9625845699       -0.8778312427        1.0667233046
 F         -0.7707004544        1.1702818109        0.4397485581
 O          1.3296761177        0.4606852393       -1.3277300051
 H          2.8564978411       -0.2099023669        0.7920893264
 H          1.4833627623       -0.5740726260        1.8544579971
 H          1.7124677522        1.0673646625        1.2165343386
 H          1.5760999433       -0.0698112876       -2.0975746620
