! wb97x-v def2-tzvp def2/J RIJCOSX DEFGRID2 scfconv7 GCP(DFT/TZ) printgap
%output
    printlevel normal
end
%cpcm
    smd true
    smdsolvent "water"
end
* xyz 0 1
C -2.800748474306698 -0.8288466629482357 0.13918712765858396
C -1.9511619671653337 0.40726620199600727 -0.11374101093197628
C -0.46348915769983423 0.19644839955678256 -0.048758343695405625
C 0.39800180330443047 1.2713153622414337 -0.31293491657192896
N 1.7248915125270632 1.1670711509614136 -0.27145002689744396
C 2.2079366144958885 -0.046166462072594616 0.042139747400892415
C 1.369151023045085 -1.114937933969908 0.3035402445181207
N 0.03223691277459639 -1.006595159308782 0.2615504329852215
H -2.625124971291855 -1.2400408686713713 1.1370114336352863
H -2.5913539348797516 -1.6156466437209474 -0.59100483097142
H -3.8603928116347195 -0.5691013508654538 0.06243677188933115
H -2.2073267739412894 1.194213510522635 0.6078773957680225
H -2.1852575099589036 0.8314084729525014 -1.0986662633028104
H -0.015795883352762666 2.245842802348144 -0.5655608740885932
H 3.2873987410089893 -0.1622909821362334 0.08359674589783589
H 1.7802471517912748 -2.089973329436646 0.554279904166502
*
