! pbe def2-sv(p) def2/J RI DEFGRID1 loosescf d4 GCP(DFT/SV(P)) printgap
%output
    printlevel normal
end
* xyz 0 1
C -2.0225839965 -1.3983492467 -0.155837343
C -1.0127333383 -0.5206094287 0.597333375
H -1.475028033 -0.1873807577 1.5347218656
C -0.6700212881 0.7362437347 -0.2253610724
H -0.6150929036 0.4892508683 -1.2965110517
C 0.7026726473 1.2627541526 0.202291419
H 0.6617836392 1.4663900257 1.2845130359
C 1.7765496281 0.196065457 -0.0837166674
H 2.0797202267 0.287265004 -1.1321499424
C 1.2250116025 -1.2345027304 0.111479671
H 1.9924228916 -1.8318780479 0.6241446706
O 0.1281131837 -1.2719059926 0.9932631256
O 0.9208693138 -1.7664927459 -1.1387292003
O 2.9395301756 0.4173616465 0.6714983819
O 0.9739504136 2.446347848 -0.5030301705
O -1.6283890436 1.7377634073 -0.002662159
O -3.2011383098 -0.6437077983 -0.3303240979
H -2.2123827279 -2.2985160903 0.4413747911
H -1.5955438555 -1.6843866549 -1.1245266168
H 0.8443377239 -2.7317912953 -1.085870766
H 2.7368149343 0.3525135978 1.6168740126
H 1.8470210626 2.7748835161 -0.2410778461
H -2.5002129965 1.3711235513 -0.226418513
H -3.8608960933 -1.1803987134 -0.7915621183
*
