! pbe def2-sv(p) def2/J RI DEFGRID1 loosescf d4 GCP(DFT/SV(P)) printgap
%output
    printlevel normal
end
* xyz 0 1
C -2.2322364814 -1.1888475426 0.0983240781
C -0.8694302056 -0.5704901763 0.4568808417
H -0.8806094655 -0.2721775373 1.5174439096
C -0.5649596971 0.6658140346 -0.4052298226
H -0.5023650922 0.3745971728 -1.4594692558
C 0.7874042713 1.2688215732 0.0001984087
H 0.6360584809 1.8722455149 0.9103870622
C 1.7984603624 0.1668041804 0.3914021863
H 2.7696595006 0.4082447443 -0.0641641507
C 1.3744890965 -1.2028759065 -0.1611433201
H 2.0468629591 -1.9832047091 0.233754797
O 0.1028473182 -1.5975133906 0.2840253782
O 1.4617541733 -1.1464501255 -1.5501749441
O 1.8764318853 0.1581772463 1.793690149
O 1.2314988964 2.0693952339 -1.0611844446
O -1.6051837979 1.6081498345 -0.3300113858
O -3.3174707658 -0.4157903943 0.5323835811
H -2.3111236067 -2.1547983925 0.6018113102
H -2.2733839701 -1.3518179456 -0.9862881601
H 1.2596835844 -2.0153142907 -1.9304531446
H 2.5261897788 -0.4936496237 2.0943057692
H 1.9985909923 2.5930716355 -0.7880960913
H -1.5408190276 2.0995781391 0.502782626
H -3.258610766 0.4506245071 0.0930321322
*
