  13
        -19.13174197
 C         -2.3122408159        0.0052337962       -0.0000572498
 C         -1.6123803296        1.2011302677        0.0000623266
 C         -0.2302119232        1.1986743243        0.0001025666
 C          0.4573529420       -0.0085679509       -0.0002548480
 C         -0.2384296409       -1.2095029704       -0.0000760410
 C         -1.6216781543       -1.1952568873        0.0000064066
 S          2.2281848039        0.0431452646        0.0000421525
 H         -3.3911188551        0.0095657125        0.0002362265
 H         -2.1423463679        2.1413911441       -0.0001847698
 H          0.3236128917        2.1257477511       -0.0001646268
 H          0.2939307703       -2.1484749254        0.0002288622
 H         -2.1604211267       -2.1304877238        0.0009007771
 H          2.4177838631       -1.2715089901        0.0002264455
