! pbe def2-sv(p) def2/J RI DEFGRID1 loosescf d4 GCP(DFT/SV(P)) printgap
%output
    printlevel normal
end
* xyz 0 1
C -2.5560033379 -0.6978741853 -0.2950308302
C -1.1669515354 -0.3101614159 0.2265191075
H -1.1995880396 -0.2375928664 1.325938702
C -0.7048310128 1.035506842 -0.3662205102
H -0.680627801 0.9355415103 -1.4581270444
C 0.7079088775 1.3322898661 0.1529543582
H 0.6798666782 1.4477801444 1.244682793
C 1.6544575129 0.162680075 -0.1724985646
H 1.8012706654 0.0873814117 -1.261218562
C 1.054823989 -1.1695035966 0.3016068437
H 1.0717868324 -1.1750776705 1.4112355169
O -0.2714320186 -1.3425857061 -0.1494837778
O 1.8120952387 -2.1922918517 -0.2237539035
O 2.8855682804 0.3286550858 0.4802284365
O 1.2319493271 2.5455184201 -0.3257809003
O -1.6033881348 2.0781378469 -0.1074645133
O -3.1409021865 -1.7354618113 0.4454279785
H -2.4630921124 -0.9705154856 -1.3524930488
H -3.2195073341 0.1634937819 -0.2018540825
H 1.4319483749 -3.0506229301 0.0216172298
H 3.2052789814 1.2282805137 0.3018787557
H 1.0803588992 2.6217199346 -1.2789271726
H -1.5711328078 2.324011986 0.8286820351
H -2.6005340948 -2.531931724 0.3461698513
*
