! pbe def2-sv(p) def2/J RI DEFGRID1 loosescf d4 GCP(DFT/SV(P)) printgap
%output
    printlevel normal
end
* xyz 0 1
C -2.3829015732 -0.9089399793 0.429632644
C -0.9331152077 -0.4379527603 0.6204131948
H -0.6516592813 -0.5525734677 1.6780657049
C -0.7469800511 1.0401776518 0.204018633
H -1.5204983117 1.2987924704 -0.5318195575
C 0.6417931817 1.243423071 -0.4448537324
H 0.9230469016 2.2951941026 -0.2900883649
C 1.6556853534 0.3523613604 0.2784572444
H 2.649441774 0.4818770941 -0.1694737223
C 1.2631848761 -1.1327716636 0.045787902
H 1.5690853011 -1.7133615913 0.9319665473
O -0.1236980791 -1.2883402209 -0.174408585
O 1.9212206578 -1.6804863287 -1.03598689
O 1.7634379599 0.6583635132 1.6458943064
O 0.6743905695 0.9001713386 -1.8039224669
O -0.7938726836 1.9038962029 1.319040656
O -2.8327423483 -0.72304259 -0.8865979488
H -3.0489714939 -0.3244624559 1.0663733521
H -2.4435347983 -1.9640313054 0.7194610745
H 1.6394898845 -1.2047782673 -1.8368006282
H 1.0141325019 1.2169962091 1.9165632578
H 0.1726251674 1.5449353271 -2.3229763768
H -1.6961703352 1.9644439494 1.6617643824
H -2.2838255462 -1.2635100261 -1.4725101992
*
