! r2scan-3c def2/J RI DEFGRID2 scfconv6 printgap
%output
    printlevel normal
end
%cpcm
    smd true
    smdsolvent "water"
end
* xyz 0 1
C -2.553029599 -0.7018711257 -0.3180088123
C -1.1686846743 -0.3161033269 0.2189996619
H -1.2066149064 -0.2640706385 1.320448882
C -0.7099975031 1.0387439969 -0.3401823274
H -0.6986737543 0.9873040884 -1.4343234103
C 0.7108763583 1.3357286523 0.1583914445
H 0.6882605956 1.4640691471 1.2553112013
C 1.6599522974 0.1731976923 -0.1592163087
H 1.8143457778 0.1204027137 -1.2461022011
C 1.0560834215 -1.1638936746 0.2949231275
H 1.0638535948 -1.1805178419 1.4049816012
O -0.2658510257 -1.3373829452 -0.1675652023
O 1.8209899242 -2.1791298039 -0.2329572381
O 2.8808556815 0.3262396299 0.5141901382
O 1.238732522 2.4941534381 -0.441789935
O -1.5839912182 2.0887573351 -0.0181641474
O -3.1445430704 -1.7429248105 0.4122411171
H -2.4481416587 -0.9686428821 -1.3756495384
H -3.2204509896 0.1568553624 -0.2281316668
H 1.4345802154 -3.0403881113 -0.0078061832
H 3.2888579937 1.1550441079 0.2193352494
H 0.5443987706 3.1705164237 -0.4767022141
H -1.6974952992 2.1423282468 0.9430229225
H -2.6087265819 -2.5416565109 0.3077053005
*
