! wb97x-v def2-tzvp def2/J RIJCOSX DEFGRID2 scfconv7 GCP(DFT/TZ) printgap
%output
    printlevel normal
end
%cpcm
    smd true
    smdsolvent "water"
end
* xyz 0 1
C 3.3755484680728745 -0.08619119940785559 -0.03983378452117921
N 1.9568250428806824 -0.4040811539013148 0.11919192030094868
C 1.6723724480372046 -1.7023317586517965 0.730842704245066
C 1.047266257629053 0.5736258870039953 -0.0692130364516352
O 1.3850266425160767 1.7494170919335825 -0.32692695966704366
C -0.4075917104005286 0.23321069543754103 -0.006880851466171984
C -0.9474064391104561 -0.8281652010967476 -0.7389739587342726
C -2.321086162032814 -1.0502221372671814 -0.7343482320784631
C -3.1606294335772094 -0.22724195624773524 0.01299939628951709
C -2.62516520248077 0.8321068862639437 0.7435524124330295
C -1.2554052228801411 1.0712587746369213 0.7227422066145847
H 3.5169280078228113 0.6091696175986216 -0.868346665759932
H 3.91587588262341 -1.01122778683463 -0.2535124429513006
H 3.7884697784338095 0.3609890331686657 0.8728408500874797
H 1.8513712742976023 -2.5184962111547042 0.022425814262187243
H 0.6425672354905051 -1.7499850650032143 1.0812258776478598
H 2.3354500508180176 -1.8387758907328364 1.5924151269696278
H -0.2970560259965604 -1.472306036360135 -1.3221882752764795
H -2.735630630089178 -1.8678671145198555 -1.3153952002526637
H -4.230867426992216 -0.40806657797325296 0.022632979254630346
H -3.276489821085736 1.4758534900045068 1.326070746093875
H -0.8348334744390327 1.903532109558394 1.2784433428941842
*
