! wb97x-v def2-tzvp def2/J RIJCOSX DEFGRID2 scfconv7 GCP(DFT/TZ) printgap
%output
    printlevel normal
end
%cpcm
    smd true
    smdsolvent "water"
end
* xyz 0 1
C -3.5502122160504728 0.0005454052093555611 -0.0002322759638747427
C -2.8481699688450504 1.1417543730061586 0.3816939719904543
C -1.4572261281946457 1.1425346985728027 0.38222797347412196
C -0.7393056087166521 4.6511128435982175e-05 0.0007811643116921829
C -1.4573692091890327 -1.1422390326115912 -0.3810156617634634
C -2.8483115175783387 -1.1409635042110584 -0.38150005496050843
C 0.7393064537085313 -0.00011348652566680405 0.0007879582051125267
C 1.4573497599582554 1.1421991607646316 -0.3809733592588131
C 2.8482897727642005 1.1409546448892633 -0.38144919340816213
C 3.550213183087974 -0.0005230458656968268 -0.00013968312690075614
C 2.8481937174870917 -1.1417638819804317 0.3817318974387214
C 1.457247851403018 -1.1426002837999 0.382199056049473
H -4.635559558439147 0.0007706514863666681 -0.0007256257542069955
H -3.385471087253247 2.0335035961540324 0.6894490618922203
H -0.9219415023379376 2.03126551157072 0.7021090957742222
H -0.9221707964873292 -2.031146548404581 -0.7005308456726698
H -3.3857069884348974 -2.0325127134785514 -0.6896812847616606
H 0.9221308941961855 2.031091459424322 -0.7004955238158405
H 3.3856667470885955 2.032538978343291 -0.6895706488429826
H 4.63556073354264 -0.0007169776730221939 -0.0006102603690683515
H 3.3855147401584267 -2.0335106573019788 0.6894652213952608
H 0.9219854777133798 -2.0313454749795623 0.7020665500196512
*
