! r2scan-3c def2/J RI DEFGRID2 scfconv6 printgap
%output
    printlevel normal
end
%cpcm
    smd true
    smdsolvent "water"
end
* xyz 0 1
C -1.6285894441 -0.1452821114 0.4581159424
C -0.6585134041 0.5170043997 -0.5154948968
C 0.6790445208 -0.2207759063 -0.6133241282
O 1.4846998615 -0.0892511111 0.5399101757
H -1.7960960804 -1.1838436349 0.1805711455
H -1.2474665276 -0.1126909761 1.4760832066
H -2.5839347986 0.3725785457 0.4427002388
H -0.4662739092 1.5458249711 -0.2057089554
H -1.101325419 0.5389401558 -1.5120190554
H 0.5036596114 -1.2836523084 -0.8304529749
H 1.2772947742 0.2017015415 -1.42434248
H 1.0087738921 -0.4608375553 1.2951548109
*
