! pbe def2-sv(p) def2/J RI DEFGRID1 loosescf d4 GCP(DFT/SV(P)) printgap
%output
    printlevel normal
end
* xyz 0 1
C -2.365317205 -0.9694430792 0.3812577614
C -1.0729409281 -0.2584017253 0.8026158045
H -1.2606399955 0.2095212542 1.7773658881
C -0.6824170267 0.849615235 -0.1796888188
H -0.7381958165 0.4735781256 -1.2123868341
C 0.7568507789 1.3029730992 0.1233754882
H 0.7889773363 1.6526196981 1.1629322309
C 1.7473808057 0.1346275065 -0.0445343779
H 2.1997242524 0.1728842402 -1.041146839
C 1.000349388 -1.2186943226 0.0512684788
H 1.7035478903 -1.9800111445 0.4303437658
O -0.0177771811 -1.1981347774 1.0102937368
O 0.5679703201 -1.5717505426 -1.227585824
O 2.8226828167 0.204750208 0.8535392331
O 1.0848508128 2.4346471319 -0.6444973233
O -1.586022439 1.9144355905 -0.007949087
O -2.1691499131 -1.6416687843 -0.844558937
H -3.1415213674 -0.2025319993 0.2913561972
H -2.6337355587 -1.6840834165 1.1680227037
H -0.3168361966 -1.9831189701 -1.1726269835
H 2.5014345526 0.1088852332 1.7620108552
H 1.246483598 2.175749449 -1.5634790627
H -1.1533663883 2.7259309821 -0.3214066437
H -3.0063116829 -2.029324094 -1.1345367235
*
