! pbe def2-sv(p) def2/J RI DEFGRID1 loosescf d4 GCP(DFT/SV(P)) printgap
%output
    printlevel normal
end
* xyz 0 1
C -2.4782851096 -0.795523635 -0.0247833767
C -1.1021960969 -0.5308592446 0.5856178936
H -1.099077016 -0.8754251959 1.6323666253
C -0.74105149 0.9809338953 0.58933274
H -1.6236059306 1.5562319752 0.2887424387
C 0.3875240996 1.2523845397 -0.4139970845
H 0.7191021458 2.2926765366 -0.2921572866
C 1.6051719054 0.3562974078 -0.0839721368
H 2.2541107258 0.3452574283 -0.9689515675
C 1.1546063752 -1.0980842938 0.2245696071
H 1.2566753065 -1.2692615993 1.3119669427
O -0.1788651857 -1.3038557724 -0.1637119329
O 1.9410306304 -2.0489838057 -0.4012732968
O 2.2645458911 0.9271653625 1.0238142678
O -0.0131705184 1.1019669123 -1.748604944
O -0.4078876027 1.4255608081 1.8818682581
O -2.5250656911 -0.198728016 -1.3015079551
H -3.241484225 -0.3690973838 0.6360603859
H -2.6123962079 -1.8799509078 -0.0979775238
H 1.6330673984 -2.1635159155 -1.3137343534
H 3.1407596846 0.5306049789 1.1308881877
H -0.7780459043 0.4995333051 -1.7968023075
H 0.5494686358 1.3277161464 2.0196728287
H -3.3586814668 -0.4250368713 -1.7371287994
*
