! wb97x-v def2-tzvp def2/J RIJCOSX DEFGRID2 scfconv7 GCP(DFT/TZ) printgap
%output
    printlevel normal
end
%cpcm
    smd true
    smdsolvent "water"
end
* xyz 0 1
C -3.571936978380365 0.40295660638065484 -0.24105047483122471
O -2.1762172719324218 0.5269923952778702 -0.6163249085692665
C -1.3185208251950553 -0.2929603645689687 0.025877613775214383
O -1.6826625323415951 -1.1110865712887645 0.8552809154302496
C 0.10767214547994072 -0.03182908098390594 -0.3726673100115671
C 0.9650323869488183 -1.2967055617826906 -0.27705301508607616
C 2.4166250843951746 -0.9920198309937613 -0.6495794766105878
C 2.9922956496739777 0.11355385442632955 0.2370252615025382
C 2.132470086119551 1.3762355906380301 0.1668309155638043
C 0.6778359770760631 1.0814937878164763 0.535214354531699
H -3.698313533326475 0.6203396330826304 0.8225437216034076
H -3.9344258819004256 -0.6034456269929727 -0.4643287570481078
H -4.10016618198464 1.1397930215445853 -0.8451906763091123
H 0.10855659470866431 0.3392872208728155 -1.404662189255687
H 0.9234793292614691 -1.6777813760937523 0.7507949182838571
H 0.5537828645977112 -2.0746720062754895 -0.9303420432814904
H 3.018673554910131 -1.9033351172814312 -0.5616008567895431
H 2.4633114152531213 -0.6768678769258434 -1.7009890687481444
H 3.027447053871846 -0.24082658409417018 1.2764175694730473
H 4.022281058425097 0.3413504274865069 -0.06017949874180214
H 2.5293781106840014 2.1476971608122755 0.8364549050252652
H 2.1680991393884885 1.7846052607956022 -0.852261284614378
H 0.6202112912640395 0.7459778472210412 1.5793849484870899
H 0.06712475390225046 1.986181657504592 0.44354293778330633
*
