  24
        -42.17171685
 C          3.2796999290        1.0664807799       -0.0006673541
 N          2.2764131313        0.0343686395       -0.0002808234
 C          2.4734282740       -1.2925208293       -0.0017551516
 N          1.3559233895       -1.9961242507       -0.0012879334
 C          0.3749621901       -1.0701311162        0.0004098799
 C          0.9139175083        0.2136083340        0.0009453171
 C          0.0944360043        1.3792743662        0.0013685333
 O          0.4768435695        2.5464855036        0.0028647718
 N         -1.2601225941        1.0550933314       -0.0004344760
 C         -1.8184126439       -0.2151951126       -0.0003234196
 O         -3.0333858467       -0.3548014973       -0.0016533575
 N         -0.9678011988       -1.2870779591        0.0001051527
 C         -1.4849423656       -2.6421712582        0.0028262095
 C         -2.2200270866        2.1502003131       -0.0020563829
 H          3.9070588636        0.9778586040        0.8854068286
 H          3.9019413386        0.9822599755       -0.8908127730
 H          2.7787329035        2.0323772611        0.0030447590
 H          3.4463815458       -1.7403258305       -0.0031107879
 H         -1.1811340799       -3.1452794214        0.9187598743
 H         -1.0816403195       -3.1814345486       -0.8514360887
 H         -2.5691119896       -2.5855185904       -0.0561787711
 H         -1.6569364940        3.0798681523       -0.0010771805
 H         -2.8527597442        2.0835106171        0.8815093813
 H         -2.8496216579        2.0834499205       -0.8878671893
  24
        -42.17148023
 C          3.2772024427        1.0718017534        0.0013096858
 N          2.2779025596        0.0358370474       -0.0001463487
 C          2.4781248767       -1.2903488160       -0.0014029024
 N          1.3623668562       -1.9966379606       -0.0015153493
 C          0.3783839804       -1.0729251768        0.0000675762
 C          0.9149471293        0.2117134214        0.0008569130
 C          0.0895565778        1.3729532592        0.0005362855
 O          0.4560242940        2.5447621978        0.0002052349
 N         -1.2652238503        1.0511906129       -0.0002320591
 C         -1.8210019978       -0.2204472335        0.0002965352
 O         -3.0325319727       -0.3893315227        0.0002187475
 N         -0.9642563375       -1.2868209180       -0.0003072983
 C         -1.5086121742       -2.6320045642        0.0013234013
 C         -2.1813087254        2.1834836235       -0.0013371776
 H          3.9086639336        0.9830932544       -0.8818185038
 H          2.7721590622        2.0356003366       -0.0071118771
 H          3.8961307482        0.9929484804        0.8943081568
 H          3.4518384908       -1.7364647004       -0.0023081298
 H         -2.1628862163       -2.7607564894       -0.8597637042
 H         -2.0933150522       -2.7899043038        0.9067248645
 H         -0.6715096814       -3.3211863802       -0.0411905165
 H         -3.1967181628        1.7979660189       -0.0092741028
 H         -1.9954467409        2.7960550052       -0.8825311311
 H         -2.0072694428        2.7890104293        0.8871559370
  24
        -42.17133916
 C          3.2687333053        1.0721984141       -0.0060215513
 N          2.2771204871        0.0331933444        0.0011171173
 C          2.4740099782       -1.2925651179        0.0043635962
 N          1.3567792707       -1.9972121907        0.0037641361
 C          0.3753081365       -1.0717846045       -0.0002805671
 C          0.9135129267        0.2117088496       -0.0019493040
 C          0.0971560208        1.3793949457       -0.0001227332
 O          0.4810080329        2.5445339641        0.0017875244
 N         -1.2590378170        1.0548611880        0.0007899742
 C         -1.8174538162       -0.2147958027       -0.0007523702
 O         -3.0325119211       -0.3544890435       -0.0003803239
 N         -0.9676281647       -1.2878522815        0.0005524490
 C         -1.4867470900       -2.6421693054       -0.0042697966
 C         -2.2179993894        2.1507843774        0.0022199844
 H          3.1810221411        1.6624152535       -0.9184163823
 H          3.1094325070        1.7392669061        0.8409266406
 H          4.2558839013        0.6220266775        0.0524643059
 H          3.4464045116       -1.7416993943        0.0074271738
 H         -1.2370803250       -3.1264294984       -0.9466584014
 H         -2.5660342524       -2.5865558761        0.1151283104
 H         -1.0358376342       -3.1986844309        0.8140345745
 H         -2.8580994212        2.0754297162        0.8797406836
 H         -2.8404266175        2.0944194998       -0.8894685701
 H         -1.6535807222        3.0795877673        0.0171803370
  24
        -42.17108254
 C          3.2683878145        1.0752208671        0.0086855984
 N          2.2784662372        0.0344923908       -0.0015211187
 C          2.4777079147       -1.2908305737        0.0013597712
 N          1.3618186715       -1.9973975148        0.0013979927
 C          0.3780827111       -1.0735536775       -0.0003641221
 C          0.9145790726        0.2105929499       -0.0007905695
 C          0.0918158520        1.3736900324       -0.0038673645
 O          0.4597104227        2.5435292343       -0.0125539278
 N         -1.2643742721        1.0510880172        0.0025807409
 C         -1.8208105040       -0.2199143632        0.0025711648
 O         -3.0327704458       -0.3865842586        0.0055864719
 N         -0.9647371725       -1.2873484960        0.0019187217
 C         -1.5052840888       -2.6339572156       -0.0096293091
 C         -2.1806885079        2.1831758071        0.0048714624
 H          3.0721818301        1.7757182231       -0.8025236986
 H          3.2188644351        1.6269396452        0.9478825480
 H          4.2530488474        0.6310334526       -0.1088969121
 H          3.4507639030       -1.7384787977        0.0019186324
 H         -2.3081457797       -2.7016373204        0.7223182439
 H         -0.6946587548       -3.3140467131        0.2317348391
 H         -1.9108703858       -2.8637061626       -0.9945643946
 H         -3.1927004811        1.8013884846       -0.0941675105
 H         -1.9325699270        2.8437350525       -0.8244503620
 H         -2.0726035279        2.7370230072        0.9367286710
