! pbe def2-sv(p) def2/J RI DEFGRID1 loosescf d4 GCP(DFT/SV(P)) printgap
%output
    printlevel normal
end
* xyz 0 1
C -2.506905524 0.6637502051 -1.2600718568
C -2.0546422849 0.4114509251 0.1861012958
H -2.952388974 0.3336438752 0.807641586
C -1.1410964195 1.5393742889 0.7070058821
C 0.2852890157 1.0629984371 0.9658945748
C 0.7958788278 0.2861238734 -0.2508834562
H 0.5941723232 0.890973365 -1.139203494
C 0.0104864251 -1.0303890771 -0.3399952359
C -1.385214494 -0.942145558 0.2117747755
O -1.9707213952 -1.9308215587 0.6167634518
C 2.2866173927 0.0309554263 -0.1846504836
C 2.8503277565 -0.6087564785 0.8280886126
C 3.0810870788 0.5576932041 -1.3394154858
H -3.1314880283 -0.1567430293 -1.6076839062
H -3.0874934781 1.5813268305 -1.3036961277
H -1.6519649187 0.7564467925 -1.9232421085
H -1.1178307835 2.3459837508 -0.0270824301
H -1.5557146591 1.9457060398 1.6298569084
H 0.9291045185 1.9213942915 1.1615175276
H 0.3100980365 0.4162605084 1.8450962331
H -0.0749179622 -1.3623894978 -1.3778040968
H 0.5281023319 -1.8274815964 0.1983723226
H 3.9118955921 -0.782562942 0.8678875031
H 2.2812100211 -0.9861812805 1.660796535
H 2.9589247279 1.6372225228 -1.4155195101
H 4.1372703845 0.3321269286 -1.2236982933
H 2.7270398131 0.1153428742 -2.2695110733
*
