! pbe def2-sv(p) def2/J RI DEFGRID1 loosescf d4 GCP(DFT/SV(P)) printgap
%output
    printlevel normal
end
* xyz 0 1
C -1.7313873838 -1.0363811733 -0.7114153965
C -1.0542625975 -0.501690484 0.5583267393
H -1.7479753969 -0.6179403548 1.3993096
C -0.7340846164 0.9946371213 0.435680235
H -1.6164328707 1.4619821326 -0.0196518135
C 0.5078272158 1.2497210318 -0.4481778708
H 0.8449002074 2.2847642381 -0.2738031309
C 1.6653645402 0.3486321695 0.0154057927
H 2.4570782655 0.3780643391 -0.7399492609
C 1.2433710538 -1.1242318925 0.1757076811
H 2.0136735106 -1.6140596377 0.7929536388
O 0.0697211836 -1.2826774254 0.9369887492
O 1.1601561949 -1.7162755237 -1.0813836541
O 2.2191944724 0.8300224733 1.2117458433
O 0.2697718903 1.0372274525 -1.8144850219
O -0.5116188871 1.4963949484 1.7392472817
O -2.9540948789 -0.350001673 -0.8758012816
H -1.9017382714 -2.1106245109 -0.5702410581
H -1.070174608 -0.8819143092 -1.5707786079
H 1.0813218995 -2.6779983176 -0.9895642071
H 1.5096127462 0.8799951778 1.8772825328
H -0.2978207857 1.7425170481 -2.158555584
H -0.6509082116 2.453761526 1.7536900838
H -3.4102371303 -0.7057445191 -1.6512307842
*
