! pbe def2-sv(p) def2/J RI DEFGRID1 loosescf d4 GCP(DFT/SV(P)) printgap
%output
    printlevel normal
end
* xyz 0 1
C -3.3633702027 -0.1540381213 -0.0484073688
C -2.178697101 0.7969233505 0.063651709
C -0.8176941849 0.1510018829 0.0061135472
C -0.6233658672 -1.2133679764 -0.1496183591
C 0.6593455641 -1.7374476153 -0.194583584
C 1.7637364874 -0.9180395643 -0.0861093649
C 1.5822354742 0.4535528756 0.0705409593
C 0.2985084033 0.9751693539 0.1152582597
O 2.6909732061 1.2393235728 0.1750129438
H -3.3562903074 -0.8784057761 0.7624262796
H -3.3453605676 -0.6855825966 -0.9967486042
H -4.2912462116 0.4103933198 0.0075351209
H -2.2529763446 1.3476777024 1.0058584841
H -2.2379539873 1.5346530214 -0.7419053734
H -1.464490693 -1.880801677 -0.2370817421
H 0.7979924476 -2.8012865465 -0.315995237
H 2.7674456027 -1.3112504299 -0.1193930684
H 0.1573097795 2.0408449394 0.2369547917
H 2.4379254009 2.1688169852 0.2794913526
*
