! pbe def2-sv(p) def2/J RI DEFGRID1 loosescf d4 GCP(DFT/SV(P)) printgap
%output
    printlevel normal
end
* xyz 0 1
C -1.9524959288 -1.2579527139 -0.3556651942
C -1.2700408674 -0.4130225989 0.7338631125
H -1.9562637727 -0.3634102873 1.5856677813
C -0.9824994062 1.0307312224 0.2481659827
H -1.3601847024 1.1422882884 -0.7729860603
C 0.535966641 1.2755323586 0.2400468688
H 0.8910158885 1.3525205391 1.27713588
C 1.2246105869 0.0732591892 -0.4290731964
H 0.7588296999 -0.1429821856 -1.3960854883
C 1.0215998265 -1.1573787203 0.4774445984
H 1.8570106668 -1.2156570058 1.1940526782
O -0.1179624367 -1.0307831221 1.2994519136
O 0.9754821077 -2.2963714049 -0.3155409141
O 2.5794340664 0.307367148 -0.6990401804
O 0.889788254 2.4952466067 -0.3510200292
O -1.6787378722 1.9920622916 0.9983175882
O -1.3854036896 -1.0089880825 -1.6231333323
H -3.0160552482 -0.9857339323 -0.3652013151
H -1.8513507458 -2.3130381466 -0.0809485086
H 1.0150575216 -3.092405075 0.2365541027
H 2.9955395785 0.754276684 0.0531506517
H 0.632422432 2.4959158138 -1.2839003825
H -1.2921722336 2.0677276862 1.8827076191
H -1.7603537822 -1.6296021601 -2.2631006011
*
