! pbe def2-sv(p) def2/J RI DEFGRID1 loosescf d4 GCP(DFT/SV(P)) printgap
%output
    printlevel normal
end
* xyz 0 1
C -2.0872880749 -1.3630969474 -0.1248345739
C -1.0211593524 -0.4997463442 0.5690224584
H -1.4560751155 -0.1118301203 1.4988744225
C -0.6155099224 0.6922755505 -0.3077786749
H -0.4810411713 0.3583205347 -1.3502120108
C 0.7256415557 1.2377363363 0.2097685491
H 0.6392235654 1.4063202923 1.2902954268
C 1.8098526008 0.1876292245 -0.0652615557
H 2.1382373101 0.2651226352 -1.108201772
C 1.2185835032 -1.2379986637 0.1051923738
H 1.9669913641 -1.8605283996 0.6153550002
O 0.1089119789 -1.2704624607 0.9698204402
O 0.9215827549 -1.7333513189 -1.1621783611
O 2.9671085625 0.3758826015 0.7005218839
O 1.0025122185 2.50044495 -0.3380922452
O -1.6299285634 1.6637018943 -0.2539057636
O -3.3446302424 -0.7355162621 -0.1266529272
H -2.2085478961 -2.2969126839 0.4292010265
H -1.7667053784 -1.5917150042 -1.15084175
H 0.7689625221 -2.6897928216 -1.125219725
H 2.7470616851 0.3955122592 1.6433452056
H 1.338094808 2.4079102944 -1.24174686
H -1.2170302087 2.5390514685 -0.347349641
H -3.2337979916 0.1849065521 -0.4134307047
*
