! r2scan-3c def2/J RI DEFGRID2 scfconv6 printgap
%output
    printlevel normal
end
* xyz 0 1
C -2.0533859212 -0.1096920226 -0.4034185205
C -0.8145641635 0.0062444933 0.4793211935
C 0.1300296772 -1.2026395207 0.3134584767
C 1.3253432039 -0.677019676 -0.479830716
C 1.4771880959 0.7482619311 0.0401168723
C 0.0326052329 1.2425909264 0.1114261438
H -1.7660483822 -0.2287950799 -1.445854529
H -2.6529457556 -0.9687220629 -0.1100897757
H -2.6682619892 0.7833809747 -0.3143100367
H -1.1430669813 0.0760105545 1.520135104
H 0.4671570207 -1.5508342357 1.2907723613
H -0.3633625331 -2.0339184805 -0.1878884692
H 2.2206067205 -1.2796034474 -0.333905069
H 1.091434881 -0.6579170049 -1.5453719538
H 1.9203110029 0.7310910888 1.0372528486
H 2.09828851 1.3705272359 -0.6026299566
H -0.0898352244 2.0506212754 0.831254632
H -0.2727879141 1.6158496424 -0.8671687138
*
