! pbe def2-sv(p) def2/J RI DEFGRID1 loosescf d4 GCP(DFT/SV(P)) printgap
%output
    printlevel normal
end
* xyz 0 1
C -3.0362846695 0.7476981213 0.4646048053
C -1.5714699458 0.3419750819 0.6173273946
H -1.3821426879 0.1486347615 1.6805015492
C -0.6090411465 1.4419404426 0.1264811941
C 0.2018800187 0.9792984993 -1.0754861753
C 1.0537381587 -0.2507441647 -0.7239533816
H 1.5303430349 -0.5925164876 -1.6478847303
C 0.1349418836 -1.382005581 -0.222209134
C -1.3077960156 -0.9847430736 -0.0609062044
O -2.207378933 -1.726224642 -0.4111513518
C 2.1632784763 0.133157538 0.2311336789
C 2.0515401898 0.1228922219 1.550332651
C 3.4294701639 0.5685289369 -0.4435921344
H -3.6863366877 -0.0625568476 0.7869095223
H -3.2485573648 1.6306679304 1.0607683297
H -3.2594575348 0.9610323303 -0.5784667332
H -1.189488107 2.3233294114 -0.1467809051
H 0.0767141955 1.7310762784 0.9227891023
H -0.4745823297 0.7138642361 -1.8919588073
H 0.8458655346 1.790393031 -1.4173310692
H 0.1657797734 -2.2378637109 -0.8987854595
H 0.4730726214 -1.7352205166 0.7538097988
H 2.8686034452 0.4257658358 2.182947816
H 1.15805644 -0.1879668701 2.0642036691
H 4.1472626351 0.9485647623 0.2774857918
H 3.8772198497 -0.2735329756 -0.9701261679
H 3.2231956581 1.3452744476 -1.1777031499
*
