! wb97x-v def2-tzvp def2/J RIJCOSX DEFGRID2 scfconv7 GCP(DFT/TZ) printgap
%output
    printlevel normal
end
%cpcm
    smd true
    smdsolvent "water"
end
* xyz 0 1
C -1.897683330960219 -0.6634928416622722 0.17508820304444894
C -0.9457829269628285 0.4611283424737817 -0.1987181353519316
C 0.515165208817983 0.10119965418996255 -0.01962997651108456
O 0.887562944724807 -1.0103589109819653 0.39042603459420977
N 1.392791752057622 1.0727583297236793 -0.33535001940577885
H -1.7812428753281415 -0.9497079764544754 1.2240884458024401
H -2.932084920722451 -0.3431463826478125 0.023336381041340552
H -1.7236684395062305 -1.5511926583315347 -0.43940061472566033
H -1.1463277299284196 1.3568444471270662 0.40196005914784677
H -1.0901895032501288 0.7622464948524866 -1.2436797995917785
H 1.0761183092431674 1.9697414080626667 -0.6684872111920968
H 2.3831072289155744 0.9044283583811317 -0.24148279783560297
*
