! pbe def2-sv(p) def2/J RI DEFGRID1 loosescf d4 GCP(DFT/SV(P)) printgap
%output
    printlevel normal
end
* xyz 0 1
C 1.3352528365 1.328512605 6.9642e-06
C -0.0286234949 1.1070580105 -6.25069e-05
C -0.4957953065 -0.2113582785 -1.99947e-05
C 0.4493863373 -1.2418081333 1.54631e-05
N 1.7508341331 -1.029545362 -7.1422e-06
C 2.1805725832 0.2251356653 1.90306e-05
C -1.9272228965 -0.5044825448 1.88718e-05
O -2.8086783957 0.3276078356 1.7075e-06
H 1.7385689508 2.3276526686 0.0001062343
H -0.7433883194 1.9167712415 0.0002544017
H 0.1389513024 -2.2782194679 -9.17346e-05
H 3.2549569818 0.344136525 3.5769e-06
H -2.1720155142 -1.5813595609 6.38735e-05
*
