! pbe def2-sv(p) def2/J RI DEFGRID1 loosescf d4 GCP(DFT/SV(P)) printgap
%output
    printlevel normal
end
* xyz 0 1
C -1.9500010273 0.6246550143 1.94982e-05
C -1.900014266 -0.75819457 4.6337e-06
C -0.6723457892 -1.3995481209 4.84525e-05
C 0.4800561694 -0.6436102759 9.3572e-05
C 0.4589540895 0.7508345577 0.0002013441
C -0.7857081756 1.3722794948 -3.78399e-05
O 1.6307466934 1.4292294977 -0.0001152453
F 1.689306702 -1.2839931113 -3.86532e-05
H -2.9022240616 1.1303353569 -0.0002357694
H -2.8068656482 -1.3395586352 5.04e-05
H -0.5921087238 -2.4742591424 0.0001665245
H -0.8357022471 2.4503597386 -0.0008796794
H 1.4723884713 2.3866018388 -0.0004718542
*
