! pbe def2-sv(p) def2/J RI DEFGRID1 loosescf d4 GCP(DFT/SV(P)) printgap
%output
    printlevel normal
end
* xyz 0 1
C 2.4509920634 -1.1995112584 0.0072734917
C 1.6993724456 0.0970538861 -0.0003816245
O 2.2708188508 1.1754764723 -0.006629984
C 0.2163698483 0.0287722226 -0.0002384296
C -0.513236463 1.2207522188 0.0033595496
C -1.8942283482 1.1704798529 0.0037380207
C -2.5024326969 -0.0774744022 0.0006377819
N -1.826102038 -1.2167358612 -0.0035794614
C -0.5066065386 -1.1662967242 -0.0040878567
H 2.1843492704 -1.7765224678 0.8891265262
H 3.5185133589 -0.9965415955 0.0123593827
H 2.1943273556 -1.779944846 -0.8753790903
H 0.023674105 2.1584178994 0.00603016
H -2.4853327172 2.0715361053 0.0068617947
H -3.5788459203 -0.1777010057 0.0013094496
H -0.0168694926 -2.1289299668 -0.0080737249
*
