! pbe def2-sv(p) def2/J RI DEFGRID1 loosescf d4 GCP(DFT/SV(P)) printgap
%output
    printlevel normal
end
* xyz 0 1
C -1.6352559123 -1.3035835793 -0.6566215946
C -1.1507992399 -0.4907729388 0.553192346
H -1.9494646825 -0.5147439451 1.3025065374
C -0.8796680729 0.9928911607 0.2031883091
H -1.2795844007 1.2136335511 -0.7908845683
C 0.6303702141 1.2773412807 0.1955456615
H 0.9773358161 1.409467358 1.2344258636
C 1.3976507025 0.09107888 -0.4010627366
H 1.0304940571 -0.0985454759 -1.4181832608
C 1.1560803613 -1.159697436 0.4627402338
H 1.9424810644 -1.2090534299 1.2324134142
O -0.0400632779 -1.0972057429 1.2004857432
O 1.2068034898 -2.2741597386 -0.3742388817
O 2.7585763837 0.4429238967 -0.4265139342
O 0.8616219288 2.4479427096 -0.5413872853
O -1.567568892 1.864637319 1.0611074386
O -2.8528057541 -0.74765363 -1.0912357381
H -1.7704575537 -2.343297211 -0.3328096234
H -0.8850033609 -1.2779885756 -1.4556114136
H 1.1726038982 -3.0897703268 0.148565819
H 3.2604532869 -0.2165328773 -0.9260768521
H 1.8207632788 2.5554015033 -0.6435602392
H -1.2069941887 1.7962176673 1.9576631261
H -3.1920407531 -1.2647161773 -1.8356776795
*
