! pbe def2-sv(p) def2/J RI DEFGRID1 loosescf d4 GCP(DFT/SV(P)) printgap
%output
    printlevel normal
end
* xyz 0 1
C -2.761674929 0.8650207324 0.8653181027
C -1.3487806015 0.6217098472 0.3402273271
H -0.6307790388 1.0311244178 1.0623072017
C -1.0978870154 1.2828390959 -1.0143316489
C 0.3826370061 1.2177233215 -1.3929826108
C 1.0446207733 -0.129128752 -1.0099431746
H 1.6672768282 -0.4505733115 -1.8524027619
C -0.0253174592 -1.206322454 -0.8122948273
C -1.0446674933 -0.8554072141 0.2361227207
O -1.5974920487 -1.6988608837 0.9180954191
C 1.989766608 0.0149007266 0.1737764953
C 2.9640352283 0.9136480191 0.1440662208
C 1.8538134214 -0.920173673 1.3367741182
H -2.9176865347 1.9213071341 1.0645896406
H -3.4960144778 0.5328539128 0.1345260873
H -2.9198823434 0.3032076019 1.7828494809
H -1.7119646234 0.7877528351 -1.7690967147
H -1.4131742806 2.3259280848 -0.9714682257
H 0.4785188222 1.3864352832 -2.465753456
H 0.9095351102 2.0254783381 -0.8857887663
H -0.5827868771 -1.3169730402 -1.7471191266
H 0.4105625656 -2.1795398998 -0.5856640767
H 3.6569726279 1.0238894908 0.9602028895
H 3.1178578434 1.5695395732 -0.6957694567
H 2.1014561951 -1.9369404159 1.0333968323
H 2.5326337918 -0.6295373521 2.1341299489
H 0.8401828142 -0.9339009375 1.7322018999
*
