! pbe def2-sv(p) def2/J RI DEFGRID1 loosescf d4 GCP(DFT/SV(P)) printgap
%output
    printlevel normal
end
* xyz 0 1
C -2.358215257 -1.0087944484 0.3820507337
C -1.08085785 -0.2545865893 0.803484695
H -1.2937539257 0.2176824806 1.7708168216
C -0.6801276568 0.8532943634 -0.1762242573
H -0.6901964371 0.4732235492 -1.2106223799
C 0.752184927 1.2964107446 0.1614840778
H 0.7975364011 1.5575275988 1.2252434299
C 1.7265524431 0.1369531914 -0.1039908147
H 2.0485742465 0.1647335866 -1.1570037624
C 1.0042103837 -1.2134908259 0.0859459817
H 1.728081115 -1.9327536912 0.5012674288
O -0.0081789263 -1.1681659631 1.0468173666
O 0.5484907605 -1.6190727311 -1.1683566749
O 2.8382992545 0.1613445421 0.7516122311
O 1.0910519903 2.4727725458 -0.5305094422
O -1.592834572 1.9151692487 -0.0525635474
O -2.2547503774 -1.6879770027 -0.8459234848
H -3.1826962866 -0.2898361322 0.3739339821
H -2.5526988258 -1.7772273274 1.1333838185
H -0.141461844 -2.2984191373 -1.0603401879
H 3.3074052021 1.0032846429 0.6458379407
H 1.1629486615 2.2886140758 -1.479646185
H -1.1170125625 2.7452783988 -0.2235513477
H -2.3594551095 -1.0611572308 -1.5743724188
*
