! pbe def2-sv(p) def2/J RI DEFGRID1 loosescf d4 GCP(DFT/SV(P)) printgap
%output
    printlevel normal
end
* xyz 0 1
C -1.7447456794 -1.2788445742 -0.6235073678
C -1.1491415287 -0.4870431579 0.5577180393
H -1.8801010855 -0.4626734231 1.3742890019
C -0.8606199842 0.9794056554 0.1787376696
H -1.2100887883 1.1632214061 -0.84898424
C 0.6457895657 1.2637278025 0.2179717681
H 0.968528825 1.3457972797 1.2678697485
C 1.3907971311 0.0915885053 -0.4269080627
H 0.9802141458 -0.0775705865 -1.4347710096
C 1.1843386247 -1.1599677841 0.4483849912
H 1.956927192 -1.1679999634 1.2292943741
O -0.0366794626 -1.1514335958 1.1422017857
O 1.3941555841 -2.3429963792 -0.2634510428
O 2.7500382765 0.4382464719 -0.5145754404
O 0.8776338737 2.4703061158 -0.462040408
O -1.5651391232 1.8047525309 1.0730748209
O -2.9333681056 -0.7119341724 -1.1058696899
H -1.8997147548 -2.3169383598 -0.3022395953
H -1.060343651 -1.262192743 -1.4755995894
H 0.6800658368 -2.507436974 -0.8966222221
H 3.2530452829 -0.2973040957 -0.8924312641
H 1.8338227362 2.5687321511 -0.588131353
H -1.3819360268 2.7299675422 0.85287533
H -3.6067386435 -0.7183269772 -0.4109183868
*
