! r2scan-3c def2/J RI DEFGRID2 scfconv6 printgap
%output
    printlevel normal
end
%cpcm
    smd true
    smdsolvent "water"
end
* xyz 0 1
C -1.9495715491 0.4986926295 0.0641527175
C -0.9010231016 -0.5900079916 -0.1222987486
C 0.5507935734 -0.163678443 -0.0238816085
O 1.4574615791 -0.9809496166 -0.1857818204
N 0.8037469584 1.1205039054 0.244059419
H -2.938705641 0.0602109062 -0.04113151
H -1.8858382146 0.9399523418 1.0556665826
H -1.8476233373 1.274595421 -0.6904802206
H -1.0153137987 -1.0635731436 -1.1002870878
H -1.0388945068 -1.3799755296 0.6199450196
H 0.0644542264 1.7875880963 0.3768338823
H 1.7626469849 1.4197810351 0.3143489027
*
