! r2scan-3c def2/J RI DEFGRID2 scfconv6 printgap
%output
    printlevel normal
end
%cpcm
    smd true
    smdsolvent "water"
end
* xyz 0 1
C 1.9098088321 -0.4062285259 0.9831140398
C 1.1132992856 -0.3592036375 -0.3151632753
C -0.3573740595 0.080492032 -0.172055841
C -0.4636148606 1.5227507141 0.3353245522
C -1.1419684445 -0.8611635171 0.7426679278
O -0.9857338376 -0.0238861343 -1.452239338
H 1.9438101445 0.5710894838 1.4562259038
H 2.9303650789 -0.7154587649 0.7702299672
H 1.4791943279 -1.1186936774 1.6805272756
H 1.1155974554 -1.3496531259 -0.7771901591
H 1.6080090474 0.3276782976 -1.0079837245
H -0.1375526206 1.5896443093 1.3680859352
H 0.147932861 2.1887482163 -0.2701155956
H -1.4991909133 1.8498475902 0.2769750366
H -1.0233224911 -1.8876393121 0.4061050001
H -0.8033056333 -0.773241688 1.7691060737
H -2.197203113 -0.6055077269 0.6930151684
H -0.5504644493 0.5806483611 -2.0679311138
*
