! pbe def2-sv(p) def2/J RI DEFGRID1 loosescf d4 GCP(DFT/SV(P)) printgap
%output
    printlevel normal
end
* xyz 0 1
C -2.1728593598 -0.9940808087 -0.4595519673
C -1.191697917 -0.2028088208 0.4240442266
H -1.7252710239 0.1577606424 1.3133020515
C -0.6251860039 0.9992626601 -0.3489369302
H -0.5280830059 0.7499282298 -1.4117897339
C 0.7707886821 1.3317009176 0.1947266455
H 0.7218174095 1.4600819532 1.2893290807
C 1.7028735761 0.1543380433 -0.1138953974
H 1.9200218218 0.1607740748 -1.1922330426
C 1.0044673328 -1.1816668437 0.214063537
H 1.6726927837 -1.7479953336 0.8786460286
O -0.1621852068 -1.0211736576 0.9768982637
O 0.7735466842 -1.8547598653 -0.9823442598
O 2.8908187468 0.2150085897 0.630397747
O 1.2932933844 2.4948173832 -0.3980148213
O -1.4705958301 2.1185719497 -0.3080844495
O -2.7495188281 -2.096867171 0.189961404
H -1.6412744599 -1.3991289852 -1.3224123646
H -2.9415833637 -0.2936769177 -0.8132007072
H 0.49009628 -2.7642322245 -0.7994534372
H 3.330937668 1.0578306547 0.4403225044
H 0.5529416205 3.0790199057 -0.6306190693
H -1.6588656003 2.3598468763 0.6122186206
H -3.2298483892 -1.8000265886 0.9757321389
*
