! r2scan-3c def2/J RI DEFGRID2 scfconv6 printgap
%output
    printlevel normal
end
%cpcm
    smd true
    smdsolvent "water"
end
* xyz 0 1
C -2.5624998007 -0.8693868147 0.274932376
C -1.1342518942 -0.4298364379 0.6255133517
H -1.033920684 -0.3560268302 1.719063453
C -0.8216093686 0.9474206764 0.0257232122
H -1.0531731883 0.9297522047 -1.0497692089
C 0.6658898009 1.2829540863 0.1967734895
H 0.8760313163 1.4237074585 1.2697987294
C 1.5377851828 0.1333233833 -0.3129541014
H 1.393457429 0.0195539866 -1.3977071955
C 1.0976550939 -1.1740734732 0.3625679934
H 1.2675557942 -1.0825031793 1.4567171369
O -0.2653339777 -1.4290873753 0.1246883998
O 1.8378708704 -2.2066049443 -0.177314524
O 2.8750566691 0.4416430699 -0.0151250555
O 0.9166150891 2.4761723937 -0.5031116443
O -1.627177539 1.8862038803 0.689948266
O -2.7391588449 -1.0484803473 -1.1048309053
H -3.2526901857 -0.083357862 0.583442584
H -2.7894021488 -1.7948488074 0.8176327622
H 1.469078682 -3.0597353645 0.1000968829
H 3.4375650854 -0.2993442227 -0.285151769
H 1.8681536643 2.6555957553 -0.4759211054
H -1.4153163382 2.7660708694 0.3428924746
H -2.1043752194 -1.7152390281 -1.4065615672
*
