! pbe def2-sv(p) def2/J RI DEFGRID1 loosescf d4 GCP(DFT/SV(P)) printgap
%output
    printlevel normal
end
* xyz 0 1
C 2.1084488274 0.0245355836 0.0009967442
N 0.6705497798 -0.0096508872 -0.0013521935
C -0.1236026938 -1.1176498304 -0.0003145603
C -1.4112642625 -0.6628566026 0.0003216211
N -1.4233488538 0.6975919543 0.0006457942
C -0.1624992904 1.0517028918 -0.0005665736
H 2.4713835468 0.5210184093 0.9015617514
H 2.4891707185 -0.993403621 -0.0253581859
H 2.4722997868 0.5677847934 -0.8714246802
H 0.2764813288 -2.1097809139 -0.0006874685
H -2.3265963233 -1.2200431743 0.0012309296
H 0.1799181688 2.0666873051 -0.0007160683
*
