! pbe def2-sv(p) def2/J RI DEFGRID1 loosescf d4 GCP(DFT/SV(P)) printgap
%output
    printlevel normal
end
* xyz 0 1
C -1.5590327202 -1.0287820523 -0.8464715197
C -1.2197747377 -0.5532450416 0.5830923582
H -2.0392078439 -0.7860660406 1.2718300442
C -0.9173855987 0.9485794979 0.6890212422
H -1.7563836757 1.5479495652 0.32404316
C 0.3239787683 1.3218614232 -0.1480809163
H 0.8348203419 2.135631334 0.3824031861
C 1.3550429762 0.1734512751 -0.3332047276
H 1.3333082659 -0.1175462448 -1.3938244306
C 1.1215845604 -1.1201685972 0.4759423683
H 1.8824607054 -1.1473472593 1.2711277724
O -0.1094618479 -1.2443664471 1.1452410232
O 1.3058833956 -2.1848764465 -0.4106647424
O 2.6538185308 0.5986836363 0.0140105992
O -0.0413378407 1.8551229588 -1.3994046784
O -0.7663645594 1.3042449827 2.041766746
O -2.2222005968 -0.0511918229 -1.6126656497
H -2.1456586422 -1.9506702859 -0.7875204661
H -0.6345774661 -1.2566754946 -1.3802101146
H 1.3152135709 -3.0248129463 0.0734016264
H 2.9388732809 1.292259861 -0.598695458
H -0.7400292039 1.3036670363 -1.7949644831
H -0.1932721997 0.6533762789 2.4750058136
H -3.1449951243 0.0215111727 -1.3317074213
*
