  15
        -23.09529902
 C         -2.6769834011        0.0002588078       -0.4071873284
 C         -2.0199229757        1.1985706532       -0.1822188581
 C         -0.7113310209        1.1988487405        0.2668143345
 C         -0.0466161197       -0.0002270025        0.4993401529
 C         -0.7116498154       -1.1990425956        0.2663903596
 C         -2.0202621367       -1.1983009627       -0.1826060680
 C          1.3729920565       -0.0005351612        0.9597000082
 Cl         2.4761138390        0.0001833654       -0.4829230834
 H         -3.6976459829        0.0004798991       -0.7580013329
 H         -2.5274203494        2.1349329824       -0.3573658221
 H         -0.1987226031        2.1336837424        0.4382705534
 H         -0.1993329331       -2.1340960037        0.4376007546
 H         -2.5278800351       -2.1344627964       -0.3585396005
 H          1.6253666065       -0.8972780214        1.5212604422
 H          1.6254110725        0.8953849520        1.5225045066
