! wb97x-v def2-tzvp def2/J RIJCOSX DEFGRID2 scfconv7 GCP(DFT/TZ) printgap
%output
    printlevel normal
end
* xyz 0 1
C -1.4481853757587755 0.5569051974247342 1.367018938260252
C -0.9599017940011069 -0.31917837640876723 0.22742845658655791
H -1.0553284303045611 -1.3825754596870738 0.49080181485638674
C 0.517135703566082 -0.09561883792120035 -0.05651405425542089
F 0.7966541771513262 1.1867752451861198 -0.3924149339869032
F 1.2658944814499233 -0.3969029638473653 1.0304187674240548
F 0.9615527159867752 -0.8716741350775277 -1.0742362401923478
O -1.6264086001879157 -0.03924052247435304 -1.0039508406564592
H -0.9168873884732335 0.32632284085794716 2.294339151579781
H -2.511797807413605 0.361077776412515 1.5287076577151542
H -1.3181231244978666 1.6160335566757296 1.1277952722945679
H -2.5721524773726228 -0.16191418277128974 -0.8474630703170797
*
