! pbe def2-sv(p) def2/J RI DEFGRID1 loosescf d4 GCP(DFT/SV(P)) printgap
%output
    printlevel normal
end
* xyz 0 1
C -2.071246354 0.065052857 -0.0012516061
C -0.7087920218 0.6934459259 0.001491996
C 0.4467662666 0.0399271793 0.0039959867
C 1.7633479033 0.7599975305 -0.0018271467
C 0.5574147686 -1.4561584254 -0.0002472518
H -2.2336269184 -0.5164965922 0.9061809563
H -2.8403783631 0.8302031189 -0.0557777785
H -2.1912017505 -0.6026504334 -0.853329607
H -0.6929842154 1.7755354899 0.0023643166
H 2.3288764875 0.5187593388 0.8978406596
H 2.3578854259 0.4479465158 -0.8596433138
H 1.6234263535 1.8368945472 -0.0462922761
H -0.4007103496 -1.9315855956 0.1810443935
H 0.9371134897 -1.7970316158 -0.9633517253
H 1.2606637088 -1.7801768742 0.7652020002
*
