! pbe def2-sv(p) def2/J RI DEFGRID1 loosescf d4 GCP(DFT/SV(P)) printgap
%output
    printlevel normal
end
* xyz 0 1
C -1.8267799058 -0.7375962328 -1.0272159858
C -1.2670244048 -0.6260937612 0.4142316996
H -2.0430442895 -0.9530822185 1.1175516123
C -0.84935733 0.804206277 0.7815950708
H -1.6996662958 1.4732949959 0.5952705403
C 0.3173615163 1.2819113701 -0.0961939122
H 0.8770026802 2.0276791531 0.4847775903
C 1.2913380139 0.1342957694 -0.4153915721
H 1.081566215 -0.2576969904 -1.4229104556
C 1.1144614612 -1.0271673102 0.5727622402
H 1.384195058 -0.6698895691 1.5855190798
O -0.1967584198 -1.5481581217 0.591026807
O 1.9691655123 -2.0433318252 0.1678421059
O 2.6006866764 0.6388772708 -0.3581680578
O -0.2264157882 1.8510098328 -1.2616873543
O -0.4373138037 0.8961567111 2.1254023813
O -2.6871726603 0.3126405405 -1.3802033077
H -2.4113957423 -1.6576504452 -1.0970660757
H -0.9902166337 -0.8119304032 -1.7285786161
H 1.7570944015 -2.8547428119 0.6532917661
H 3.223930287 -0.0980158619 -0.4484840845
H 0.4737091431 2.2974100834 -1.7590522623
H -1.1927528533 0.7413916969 2.711357167
H -2.1481123711 1.0927842292 -1.5920124184
*
