! wb97x-v def2-tzvp def2/J RIJCOSX DEFGRID2 scfconv7 GCP(DFT/TZ) printgap
%output
    printlevel normal
end
%cpcm
    smd true
    smdsolvent "water"
end
* xyz 0 1
C -0.6806770380725127 -1.2454321177176062 -9.744274439524298e-05
O -1.2660859894815921 -2.3164716293702265 -8.969784147368646e-05
N -1.3391423834614358 -0.031268490053263355 -4.511540507455539e-05
C -0.738437490932985 1.2122916632761578 -5.0104285776893117e-05
O -1.373409530887596 2.2547435359224317 4.946802594336369e-06
N 0.6422287554017382 1.1754208353790523 1.393663756626078e-05
C 1.4190112649080389 0.0333811967077013 -8.340792043175754e-05
O 2.639373569874206 0.06196690546423483 -0.00012972526152730632
N 0.6968489976537277 -1.1438424612949387 -4.626286205828877e-05
H -2.352473244519457 -0.055294021599042474 -9.403590467742922e-06
H 1.1287063634436163 2.0647842971076478 -2.486600225660512e-05
H 1.2239199415585393 -2.009804100252567 -0.00023630289901496382
*
