! pbe def2-sv(p) def2/J RI DEFGRID1 loosescf d4 GCP(DFT/SV(P)) printgap
%output
    printlevel normal
end
* xyz 0 1
C -2.7684573064 0.0796049406 0.1126639822
O -1.4830894593 0.4456076518 0.6265971204
C -0.4144260418 -0.0088977254 -0.0062407309
O -0.4492840035 -0.7083546904 -0.990552903
C 0.8461331105 0.4856736948 0.6875227787
C 2.0426606981 0.0298511891 0.036980884
N 3.0046342051 -0.3247542635 -0.47019726
H -3.4806699774 0.7162399925 0.6279359636
H -2.9635579711 -0.9721931691 0.3222603722
H -2.8006784746 0.240958073 -0.9651282401
H 0.8369308401 0.1339724917 1.7229391916
H 0.8321708692 1.5789933814 0.701802708
*
