! r2scan-3c def2/J RI DEFGRID2 scfconv6 printgap
%output
    printlevel normal
end
%cpcm
    smd true
    smdsolvent "water"
end
* xyz 0 1
C -2.4302875052 -1.0787636631 -0.3376430506
C -1.0781703989 -0.5917707883 0.2024561906
H -1.1287982654 -0.5648327682 1.3032838459
C -0.7375386563 0.8178999707 -0.3027755121
H -0.7059868924 0.8019438414 -1.4039597607
C 0.6516119545 1.2254190421 0.2020043699
H 0.629836003 1.2985378525 1.301336678
C 1.6778662961 0.1590129043 -0.1887771956
H 1.7651717183 0.1235767906 -1.285096797
C 1.1937338779 -1.2210906788 0.2872218382
H 1.1632369895 -1.2206156458 1.3983851271
O -0.0915575521 -1.5142107404 -0.2113445695
O 2.0759678022 -2.1696234578 -0.189106231
O 2.9043773036 0.5041646208 0.4007199411
O 0.9573715854 2.4780375179 -0.3581180224
O -1.7271426716 1.7075475359 0.1440146784
O -3.5147014969 -0.4852200486 0.3207740227
H -2.5069550276 -2.1541436093 -0.1641418749
H -2.4720974464 -0.8937731864 -1.4189255527
H 1.6885036247 -3.0539337046 -0.0977212336
H 3.5558652817 -0.1844994558 0.2016129923
H 1.8694653141 2.7065848392 -0.1261785117
H -1.4407078427 2.6105974018 -0.0634411844
H -3.3971079467 0.4792493361 0.2960110848
*
