  14
        -23.37883668
 C          0.8665959612       -1.8248258491       -0.0014480718
 C          1.8808421964       -0.8917793190        0.0068512282
 C          1.5911764761        0.4784429251        0.0109448485
 C          0.2487242390        0.8759394122        0.0091627883
 C         -0.7448167397       -0.0798549173        0.0001247072
 C         -0.4646834184       -1.4344175586       -0.0044019877
 Cl        -2.4122332388        0.4428069163       -0.0006579653
 N          2.5887607174        1.4077568344       -0.0437793577
 H          1.1064741559       -2.8767812879       -0.0028935750
 H          2.9109918240       -1.2128307353        0.0079051001
 H         -0.0063440065        1.9238280936        0.0119069011
 H         -1.2609022651       -2.1599998433       -0.0084750345
 H          2.3532627609        2.3587541759        0.1801198676
 H          3.5184753978        1.1058552783        0.1899323618
