! pbe def2-sv(p) def2/J RI DEFGRID1 loosescf d4 GCP(DFT/SV(P)) printgap
%output
    printlevel normal
end
* xyz 0 1
C -2.4477588025 -0.8572752972 -0.2520941996
C -1.1167639805 -0.6148254983 0.4904487254
H -1.1786238993 -1.0356123504 1.5058735381
C -0.7582435632 0.8851247312 0.604564655
H -1.6423990547 1.482779128 0.3578885855
C 0.3488966878 1.2031059156 -0.4269042275
H 0.5838013101 2.2713184915 -0.3834389544
C 1.6139642814 0.4017668832 -0.0654674495
H 2.2833672965 0.3697863847 -0.9324389815
C 1.1992626479 -1.056175253 0.2601114475
H 1.2141827671 -1.1920831756 1.3601966127
O -0.1074472491 -1.3297846812 -0.2153484447
O 2.0700073333 -1.9180680374 -0.3720884975
O 2.348641609 0.9904297078 0.9687253064
O -0.0862942658 0.9351336985 -1.7372433919
O -0.2665183779 1.2109579528 1.8859208054
O -2.8411467541 0.1836964016 -1.1074863995
H -3.258205628 -0.955363583 0.4719212082
H -2.3452319717 -1.8011025238 -0.8022309765
H 1.7829435047 -2.836605688 -0.246093715
H 1.7427875707 1.1922997312 1.7029030007
H 0.0301090693 -0.0149232728 -1.9043662499
H -0.99704572 1.4243285528 2.4824404333
H -2.1195711062 0.4026155836 -1.7222300806
*
