! pbe def2-sv(p) def2/J RI DEFGRID1 loosescf d4 GCP(DFT/SV(P)) printgap
%output
    printlevel normal
end
* xyz 0 1
C -2.0871129417 -1.0428674289 -0.2153510568
C -1.105530909 -0.4193401983 0.800774264
H -1.5990918782 -0.4303808319 1.7796959741
C -0.7737500635 1.051934996 0.4935159696
H -1.6587852954 1.4829047859 0.0036622899
C 0.4543887062 1.2621391465 -0.42510702
H 0.8200798807 2.2892357039 -0.2458925419
C 1.5969547098 0.3181087202 -0.0185049499
H 2.3625522493 0.344693803 -0.799636757
C 1.1003262955 -1.1324090365 0.1119962435
H 1.9043353193 -1.7169794009 0.5817071747
O 0.0408839906 -1.2358063238 1.0291834293
O 0.7740327061 -1.6337596129 -1.1471537718
O 2.2081419044 0.7330103313 1.1730112336
O 0.2064267635 1.0765789036 -1.7903025858
O -0.5418303547 1.6747224368 1.7417540657
O -1.8805600507 -0.6849190339 -1.5544912987
H -3.0971979876 -0.7035336062 0.0254659678
H -2.0449211572 -2.1327740342 -0.085700842
H 0.7278684918 -2.6016943253 -1.1194896913
H 1.5357079577 0.7630715664 1.87496054
H -0.5489712425 1.6140359155 -2.070517632
H -0.5503150413 2.6376242224 1.6434239118
H -0.954131314 -0.8799441879 -1.7944924828
*
