! pbe def2-sv(p) def2/J RI DEFGRID1 loosescf d4 GCP(DFT/SV(P)) printgap
%output
    printlevel normal
end
* xyz 0 1
C -1.2628034104 1.2592312639 0.7260818845
C -0.5212155203 0.3151987126 0.0292716797
C -1.1742375628 -0.7486483001 -0.5922819546
C -2.558858101 -0.8712154029 -0.5042731669
C -3.2978447594 0.0749254556 0.2033234866
C -2.6402762201 1.141467024 0.8144206046
Cl -3.548575716 2.3140024852 1.6824774767
Cl -5.0063916093 -0.0784155938 0.3129818273
Cl -3.3599789885 -2.1863185766 -1.2689250867
Cl -0.2758372641 -1.9056115139 -1.493597815
C 0.9502983393 0.4421065443 -0.0634686627
C 1.5381590278 1.4458641781 -0.8330538465
C 2.9147188054 1.5641448455 -0.9376218205
C 3.7264169891 0.6667280154 -0.2620222556
C 3.169605323 -0.3449784945 0.5197455222
C 1.7836822977 -0.4472345592 0.6129761458
Cl 1.0870909172 -1.676761734 1.5929643636
Cl 4.1782701902 -1.4571387061 1.3606167607
Cl 5.4343170275 0.7995693423 -0.3880003805
Cl 0.5272855792 2.5410871411 -1.6918587973
H -0.7640750701 2.0847948217 1.2068934266
H 3.3532793873 2.3424981245 -1.5396386525
*
