! r2scan-3c def2/J RI DEFGRID2 scfconv6 printgap
%output
    printlevel normal
end
* xyz 0 1
C -2.6482146247 0.407701186 1.2766632139
C -1.4572455273 0.4214954365 0.3677825217
C -0.8841182751 1.5422463846 -0.0502180838
C 0.3347028853 1.6174782989 -0.9171627105
C 1.0870650268 0.287188572 -1.0073864404
H 1.7162309293 0.3071937886 -1.9047560772
C 0.0543077178 -0.8319770382 -1.1967020778
C -0.888011739 -0.9356453248 0.0039639056
H -0.3380162254 -1.3306165917 0.8701667803
O -1.8992531565 -1.9045237408 -0.2262608691
C 1.9974979073 -0.0199033827 0.166306135
C 2.9163504349 -0.9680780482 0.0501390399
C 1.8513309188 0.7619309475 1.4356432243
H -2.3613583584 0.0071810428 2.2492403974
H -3.4265806923 -0.2409744255 0.8800913203
H -3.0466231559 1.4095057545 1.4102558423
H -1.3089558327 2.4956956188 0.2363544975
H 0.0206179566 1.9117496047 -1.9246244028
H 0.9933464342 2.4075982177 -0.5532896551
H -0.5400345045 -0.6133133214 -2.0879787167
H 0.5514317917 -1.7919929428 -1.3432547793
H -2.361469159 -1.6768185411 -1.044991032
H 3.5704729486 -1.231186285 0.8638192908
H 3.0527021339 -1.5231106558 -0.8631096859
H 2.2311860609 1.7737479878 1.2989496704
H 0.8085605748 0.8353438331 1.7328928645
H 2.4197709123 0.2929227539 2.2342808117
*
