! wb97x-v def2-tzvp def2/J RIJCOSX DEFGRID2 scfconv7 GCP(DFT/TZ) printgap
%output
    printlevel normal
end
%cpcm
    smd true
    smdsolvent "water"
end
* xyz 0 1
C -2.185346910925723 -0.031873858261322 -0.0037881143943573805
C -0.6973792866570441 -0.03649137206318361 -0.0027208610284224725
C 0.14901696254653085 -1.1164614701593398 0.01759823161065365
N 1.4251993688631963 -0.5944250558506436 0.00835455637419155
C 1.3093257751545206 0.7557934636768683 -0.01683678190942174
N 0.04164680323174498 1.1362903778230478 -0.02412864826086014
H -2.5801810885298417 0.46340546192156806 -0.8975394324177114
H -2.5720446026506543 -1.053408996723681 0.018727774250464943
H -2.58123608785401 0.5027876315412317 0.8664600696956974
H -0.03640123029588454 -2.179703793793209 0.03717787820402225
H 2.2884025990877777 -1.1181089194081328 0.01821615123592586
H 2.1708286728462958 1.4098083957240841 -0.028571888386529548
*
