! pbe def2-sv(p) def2/J RI DEFGRID1 loosescf d4 GCP(DFT/SV(P)) printgap
%output
    printlevel normal
end
* xyz 0 1
C -2.4220423239 -0.7077659005 -0.0401782623
C -1.0129750205 -0.261628052 0.3622804601
H -1.0350402578 0.0976224976 1.4017344705
C -0.4990585767 0.8642025427 -0.5340642338
H -0.362679103 0.4858145351 -1.5575965325
C 0.8664051233 1.3302341896 -0.0090281253
H 0.6858318684 1.919813538 0.9027952523
C 1.746771079 0.1324156148 0.4105743383
H 2.7316251181 0.2403589498 -0.067102935
C 1.1661385269 -1.2020447649 -0.0878151931
H 1.7122375769 -2.0349439226 0.3868042486
O -0.1662761889 -1.409789011 0.2968475502
O 1.3329086022 -1.2434452624 -1.4716563354
O 1.8490786635 0.1629614871 1.8108786747
O 1.4486136707 2.1209314631 -1.0131109737
O -1.432169914 1.912721652 -0.5167384187
O -2.952395415 -1.6559518088 0.848901371
H -2.390201719 -1.1097703908 -1.0612562847
H -3.0851764879 0.1575644152 -0.0148930329
H 1.0477204883 -2.1044442857 -1.8152507535
H 2.4395711699 -0.5374567054 2.1249871596
H 2.2365675297 2.5668387793 -0.6713839658
H -1.082872921 2.6383703756 -1.0561469032
H -2.3194169414 -2.3848506003 0.9269381263
*
