! pbe def2-sv(p) def2/J RI DEFGRID1 loosescf d4 GCP(DFT/SV(P)) printgap
%output
    printlevel normal
end
* xyz 0 1
C -2.3080419396 -1.015783721 -0.220189906
C -0.9112053991 -0.536150979 0.1895228073
H -0.8144331578 -0.6488078059 1.2805590514
C -0.6967268298 0.9476946522 -0.1742979564
H -1.1743542442 1.162096289 -1.1371275666
C 0.8086468856 1.2520376426 -0.3447205884
H 0.9761869203 2.2697230337 0.0289501068
C 1.6348483163 0.2689976368 0.5026074994
H 2.7050358074 0.4572275137 0.3413296407
C 1.3642526185 -1.1760768355 0.0034336851
H 1.5594813863 -1.8845046973 0.8273401523
O 0.042881996 -1.3518074114 -0.4623716764
O 2.2280984387 -1.5224278037 -1.0199728195
O 1.2814160591 0.4692370732 1.8485567808
O 1.1474427142 1.1406201398 -1.7060781658
O -1.3087246366 1.7937121258 0.7640336106
O -3.3162050839 -0.4207742124 0.5548586927
H -2.3796424639 -2.0927209447 -0.0544040936
H -2.4573857184 -0.8167327633 -1.2895774454
H 1.9331405887 -1.0676519674 -1.8280952117
H 1.9206850167 0.0369043961 2.4321572875
H 1.8929554296 1.7215695289 -1.9120200334
H -0.864668979 1.6868602634 1.6196548004
H -3.1963955542 0.5425793713 0.5442725576
*
