! r2scan-3c def2/J RI DEFGRID2 scfconv6 printgap
%output
    printlevel normal
end
%cpcm
    smd true
    smdsolvent "water"
end
* xyz 0 1
C -3.9058710372 1.5141307419 -0.0691472829
C -3.5275136232 0.5554094735 -0.9944461323
C -2.2442768798 0.0393302046 -0.9773011177
C -1.3231951214 0.4826598515 -0.0333688825
C -1.7056143835 1.4563983964 0.884665849
C -2.9920138506 1.9640695086 0.8694879905
C 0.05212882 -0.048260078 -0.0091460338
C 1.1265739508 0.8355010902 -0.0727421301
C 2.4246227484 0.3597597759 -0.0590543457
C 2.6907503711 -0.9972981364 0.0240358526
C 1.6316055464 -1.8836236714 0.1022672491
C 0.3295387281 -1.4114216887 0.0854652293
Cl -0.968221233 -2.5581277972 0.2394499923
Cl 3.7432353179 1.4866609026 -0.1480765369
H -4.9095829575 1.9108989513 -0.0812982496
H -4.2340284992 0.2076911479 -1.7330344816
H -1.9477872017 -0.6978189854 -1.7082668941
H -0.9938114792 1.7988854702 1.6207305438
H -3.2821270269 2.7122970069 1.5913934854
H 0.9350338426 1.8940980082 -0.1464169011
H 3.7062898547 -1.3561066796 0.0330288745
H 1.8148896791 -2.9424947888 0.1804704884
*
