! pbe def2-sv(p) def2/J RI DEFGRID1 loosescf d4 GCP(DFT/SV(P)) printgap
%output
    printlevel normal
end
* xyz 0 1
C -2.353604893 -0.837119058 0.627117761
C -0.8904577333 -0.3786097984 0.6660947568
H -0.5762345509 -0.2820322334 1.7130666837
C -0.7213584702 0.9811773261 -0.0234651605
H -1.2446602464 0.9428737969 -0.9896467112
C 0.7764591505 1.2836922002 -0.3035153957
H 0.9962516131 2.2762383154 0.1092270474
C 1.6997725311 0.2534188825 0.3716484247
H 2.713784403 0.3877966004 -0.0351552883
C 1.2704227936 -1.1677294872 -0.022952901
H 1.7391573391 -1.8732599912 0.6872178709
O -0.1240756766 -1.3781367816 0.0110309355
O 1.7200558643 -1.3902319572 -1.3204962494
O 1.7073297203 0.3333832997 1.7721912568
O 1.051162438 1.3729389966 -1.6796153795
O -1.2999325344 1.9452356485 0.8230385963
O -2.8399455235 -0.9890367974 -0.6808624603
H -2.9663325551 -0.0704180515 1.103084935
H -2.4417868122 -1.7760468394 1.1860370464
H 1.497773794 -2.2922576836 -1.5989119383
H 2.068695623 1.1877607682 2.0505070273
H 1.1775711419 0.4790484594 -2.039073811
H -1.4536412359 2.7614707861 0.3267661773
H -2.3100367565 -1.6677003275 -1.122927599
*
