! r2scan-3c def2/J RI DEFGRID2 scfconv6 printgap
%output
    printlevel normal
end
* xyz 0 1
C -2.4972278908 1.0081301745 -0.0043512115
C -1.7182756428 -0.2078118663 -0.4968951265
C -0.5908302689 -0.6304003602 0.4570340039
C 0.8334050666 -0.1685127112 0.0914818952
C 1.3088548445 -0.8554522366 -1.191726628
C 0.9074524309 1.3492033541 -0.0835875588
C 1.7671818365 -0.5770681418 1.237206341
H -2.9559392338 0.7983063033 0.9597203643
H -1.8492614934 1.8725451879 0.1064511227
H -3.2870212726 1.2604318953 -0.7089984628
H -2.4192505431 -1.0384806531 -0.6048019344
H -1.3170958258 3.58869e-05 -1.4890597297
H -0.5692516812 -1.7210831742 0.517730861
H -0.8271193339 -0.2598666066 1.4570846027
H 2.3323306369 -0.5638032453 -1.4167386854
H 1.2774677318 -1.9369162929 -1.0793109319
H 0.6873158998 -0.5824497318 -2.0404916082
H 1.9363534473 1.6535530354 -0.2647290737
H 0.5564017766 1.8543758738 0.8133705233
H 0.3066747607 1.6756818395 -0.9278824933
H 1.7305373662 -1.6524289905 1.3970767982
H 2.7939450392 -0.3002618889 1.0089623379
H 1.4780662361 -0.0835083952 2.1624374598
*
