! pbe def2-sv(p) def2/J RI DEFGRID1 loosescf d4 GCP(DFT/SV(P)) printgap
%output
    printlevel normal
end
* xyz 0 1
C 1.9512130963 0.0001676177 -0.7701387009
C 1.111877896 -0.0001811812 0.5187647158
C 0.2331530874 1.2508374007 0.6380836299
C -0.9114865757 1.2485923151 -0.3713506029
C -1.7698620459 4.08167e-05 -0.1990474118
C -0.9113970672 -1.2484675809 -0.3715038854
C 0.232915086 -1.251008535 0.6382324587
H 3.013408145 0.0042198828 -0.5388734645
H 1.7481811771 -0.8806078581 -1.3732296951
H 1.7423533382 0.8770555549 -1.3768933268
H 1.7984619659 -0.00040594 1.3732388322
H -0.1883292269 1.2882033064 1.6458596999
H 0.8481216483 2.1433335463 0.5034829036
H -1.5212983856 2.1441352357 -0.2338777339
H -0.5121573895 1.2712668875 -1.3870206553
H -2.2152979543 -2.27946e-05 0.7987630088
H -2.5816490155 3.33319e-05 -0.929367614
H -1.5213065099 -2.14399708 -0.2341491825
H -0.5118857854 -1.2710767214 -1.387176151
H -0.1886081327 -1.2883027779 1.6460148871
H 0.8477576176 -2.1436064035 0.5036502759
*
