! pbe def2-sv(p) def2/J RI DEFGRID1 loosescf d4 GCP(DFT/SV(P)) printgap
%output
    printlevel normal
end
* xyz 0 1
C 3.4893464487 0.4847854607 0.3578126298
C 2.1896555344 0.3586322397 -0.4346763973
H 2.4374815521 0.3950135614 -1.5007740972
C 1.2242547985 1.5130026413 -0.124448292
C 0.2691101855 1.1535946092 1.0101053131
C -0.6634992079 -0.025386927 0.6607997338
H -0.7779098733 -0.6387153538 1.5645691007
C 0.0045253048 -0.9303753866 -0.3938150612
H -0.1721992406 -0.5477225367 -1.4027045247
C 1.5138203959 -0.9845529064 -0.1349012829
O -0.543824926 -2.236081715 -0.4212759004
C -2.0884054129 0.4515829291 0.2998358764
C -2.1671382781 1.2850400134 -0.977519664
C -3.0648525215 -0.7212821947 0.2121946472
H 4.0219656718 1.3898351533 0.0755798963
H 3.2836752899 0.5252998298 1.4250123794
H 4.1356026796 -0.3682773252 0.1642598746
H 1.7947498587 2.4017962385 0.1506750624
H 0.6501784183 1.756137918 -1.0180178644
H 0.8614820204 0.9013049185 1.8912951635
H -0.3327971362 2.0258374912 1.269616721
H 1.676659869 -1.2565350195 0.9110070383
H 1.9493091857 -1.7706956555 -0.7548678561
H -0.3737249757 -2.6616416318 0.4303628881
H -2.414503829 1.0907043181 1.1310539001
H -1.8839832872 0.6967280135 -1.846507982
H -1.5263596883 2.1599124587 -0.9175221588
H -3.1896832044 1.6259606583 -1.1249772775
H -4.0683330988 -0.3581663006 0.0018258888
H -3.0910740914 -1.2705855179 1.1506582153
H -2.7709016725 -1.4061975685 -0.5783374586
*
