! pbe def2-sv(p) def2/J RI DEFGRID1 loosescf d4 GCP(DFT/SV(P)) printgap
%output
    printlevel normal
end
* xyz 0 1
C -2.8108682828 0.6036587896 0.5828672271
C -1.6290140304 -0.031996082 -0.0876845213
O -1.6847320271 -0.4808283702 -1.2161409952
C -0.3541628445 -0.0458466712 0.732441209
C 0.4274057885 1.2401682557 0.3733386713
C 1.3198768392 0.9887586659 -0.8349731796
C 2.4403282958 0.0043337588 -0.4777781921
C 1.9784808636 -1.001056523 0.5839114495
C 0.4902555323 -1.2934066001 0.4342482219
H -2.5159191775 1.5111751943 1.1013970538
H -3.5927628369 0.8139455537 -0.1416815341
H -3.194327675 -0.0969105503 1.3227021288
H -0.6181047813 -0.0084230825 1.7915758887
H -0.2705232902 2.05235056 0.160993317
H 1.0409392032 1.5400756818 1.2232120843
H 0.7045884735 0.584666836 -1.6417411923
H 1.7475800465 1.9281309855 -1.1881008264
H 2.7504885085 -0.5251568773 -1.3798464602
H 3.3079380095 0.5498092039 -0.1026921269
H 2.5473621343 -1.9267503132 0.4894842598
H 2.1622134903 -0.6042669199 1.5839310527
H 0.2867876875 -1.621520187 -0.5878307153
H 0.1943804774 -2.1011924086 1.1057788635
*
