! pbe def2-sv(p) def2/J RI DEFGRID1 loosescf d4 GCP(DFT/SV(P)) printgap
%output
    printlevel normal
end
* xyz 0 1
C -2.1475252531 -0.9291955273 -0.2336973243
C -1.1466209021 -0.3588109727 0.7836980165
H -1.6651302331 -0.3711220717 1.7506538285
C -0.7468817944 1.1137692722 0.5314468947
H -1.6088104577 1.6386373553 0.1041866024
C 0.4507062171 1.2810778982 -0.423366988
H 0.8622597113 2.2844160781 -0.2478059254
C 1.5709994928 0.2837762356 -0.0575390918
H 2.2950943299 0.2695056339 -0.8843523183
C 1.0580465757 -1.1610243578 0.1386846643
H 1.8356625676 -1.7386221993 0.6590715956
O -0.0355324781 -1.2220626605 1.0172952806
O 0.8524690354 -1.8259416715 -1.0643450963
O 2.1519711398 0.7650011125 1.1342271162
O 0.1086157788 1.2451357918 -1.7791686352
O -0.4881016644 1.7575723237 1.7573894812
O -1.6653618157 -0.8472203395 -1.5657485616
H -3.0776022212 -0.3614097286 -0.1361979638
H -2.3258717491 -1.9759269802 0.034961548
H 0.012860609 -1.5245110034 -1.4704134503
H 2.9487602961 0.2597105358 1.348329809
H -0.531677009 0.5245218007 -1.9345133989
H 0.3818604944 1.4707113821 2.0804760479
H -2.3405460326 -1.1877527598 -2.1710886193
*
