! wb97x-v def2-tzvp def2/J RIJCOSX DEFGRID2 scfconv7 GCP(DFT/TZ) printgap
%output
    printlevel normal
end
%cpcm
    smd true
    smdsolvent "water"
end
* xyz 0 1
C -2.556147697820113 -0.9269528702491081 0.3899456129954556
C -1.1202990557303882 -0.4860680331151925 0.615388942105321
H -0.9481469042819799 -0.4504011447934889 1.70432794837045
C -0.7951056748222329 0.8829704163786438 0.01729664718046437
H -0.9888402568672279 0.8634559580718266 -1.0666529726687068
C 0.6741669617577718 1.2087971726771776 0.2401027105587717
H 0.8541588320366857 1.3188386299831825 1.3212071383421629
C 1.551356532037194 0.08567905802211086 -0.29336237892347516
H 1.4325307783000498 0.015783551759456067 -1.3868283878726186
C 1.1191330731781832 -1.2469809901851236 0.3201756450636965
H 1.2700528438374445 -1.2421259294684248 1.4100596896297206
O -0.2621895980947357 -1.47569210788515 0.02195854484198167
O 1.8565806090245882 -2.3302800979773366 -0.18191669393648427
O 2.9028602261693712 0.39741917818967565 0.051081013241124386
O 0.9397397123943347 2.448315006536279 -0.4283715702605315
O -1.640913766873781 1.842669353373682 0.6579124305565438
O -2.925773519444162 -0.9895430031579413 -0.9932311929915615
H -3.2261781306065367 -0.26189848188562537 0.9470817676534368
H -2.6714408416785527 -1.9397341397676158 0.7878931762684555
H 1.8548396461348662 -2.2747463238020784 -1.1500957645093537
H 3.4745116734074686 -0.23557286354231785 -0.4035936149626621
H 1.8237876056730755 2.7369722495856785 -0.16672651220468676
H -1.3981961922484596 2.7119097830384185 0.31134149658186533
H -3.0851493890496497 -0.08814802170107765 -1.3010128544240132
*
