! wb97x-v def2-tzvp def2/J RIJCOSX DEFGRID2 scfconv7 GCP(DFT/TZ) printgap
%output
    printlevel normal
end
* xyz 0 1
C -2.7495828500162816 -0.07964196127112211 -0.7214014087188122
C -1.942669207251242 0.12067675233670211 0.5673427406631342
C -0.4643255337682749 0.044039805409636985 0.3091658899831028
C 0.1972070141880179 -1.187385316543635 0.32915394879823345
C 1.5547030799448376 -1.2384536922503313 0.045818609006007656
C 2.2207188041775483 -0.05358554694364879 -0.2516636399985904
C 1.4889357897577848 1.1255042870285992 -0.25181160424340515
N 0.1763774236304689 1.191188716668671 0.01990764263105889
H -2.54095891208559 -1.0595229123094334 -1.1622847586114275
H -2.500565301250339 0.6866097490404017 -1.461717301659649
H -3.82282487479656 -0.019550978629979524 -0.5159639869702956
H -2.2227374355323994 -0.6498319954697079 1.2931458715533668
H -2.181367807684147 1.0954013012494253 1.0031480710148042
H -0.355082813698611 -2.090948139107785 0.5678913638286465
H 2.0863181842987935 -2.1847707826142586 0.06045928361785761
H 3.2818344500091214 -0.04069493914229964 -0.47557876037816676
H 1.9791513632871371 2.07073579823454 -0.47628828885866825
*
