! pbe def2-sv(p) def2/J RI DEFGRID1 loosescf d4 GCP(DFT/SV(P)) printgap
%output
    printlevel normal
end
* xyz 0 1
C -2.4128715615 -0.91086467 0.3501838009
C -0.9624072298 -0.4608082747 0.5802207153
H -0.7013796753 -0.632140388 1.636256538
C -0.7466297411 1.0346656604 0.2512092026
H -1.5253602158 1.3702397453 -0.4450297671
C 0.6187885995 1.2387918926 -0.4509401379
H 0.8992549748 2.2900003918 -0.3201833641
C 1.6724103953 0.3500254201 0.2223700074
H 2.6283438542 0.4438792055 -0.3069926638
C 1.2426017038 -1.1356995152 0.0924653004
H 1.4294352838 -1.6258043967 1.0695948664
O -0.1294111875 -1.2727357331 -0.2316022464
O 1.9702195779 -1.7174268495 -0.9252217358
O 1.8951168343 0.7057519676 1.562193017
O 0.5487636123 1.0245434432 -1.8329602128
O -0.7289999037 1.8153140015 1.4270589504
O -2.895362045 -0.5783576558 -0.9244426993
H -3.0647110682 -0.4026575049 1.062401124
H -2.4694785615 -1.9919266651 0.5223094457
H 1.7116618241 -2.6465942051 -1.0334492129
H 1.1160611559 1.176420847 1.9064722905
H 0.5237293724 0.071521079 -2.0075971461
H -1.6295197615 1.9956830413 1.7287539144
H -2.3916663369 -1.068607164 -1.5886679959
*
