! pbe def2-sv(p) def2/J RI DEFGRID1 loosescf d4 GCP(DFT/SV(P)) printgap
%output
    printlevel normal
end
* xyz 0 1
C -2.4376212542 -1.0792787861 -0.2889994937
C -1.0677812024 -0.5719652785 0.1698299774
H -1.085397177 -0.5193480343 1.2715871972
C -0.7290173588 0.818248376 -0.3979999158
H -0.6284404682 0.7253216467 -1.4871805876
C 0.6243440622 1.2440481163 0.1919254014
H 0.5453190527 1.3188022619 1.2841924663
C 1.6918688364 0.183571126 -0.1396551409
H 1.8886343171 0.1774901884 -1.2231322936
C 1.2097922055 -1.2241734473 0.2449056188
H 1.2046896274 -1.2893228952 1.3530775087
O -0.0866473688 -1.5002565051 -0.24515454
O 2.068755849 -2.1439000536 -0.3131928095
O 2.8754032859 0.4335356688 0.5721861685
O 1.0442533637 2.5169595983 -0.2324606454
O -1.7354535085 1.768660648 -0.1985139646
O -3.4025753678 -0.568363145 0.5986271125
H -2.4125184926 -2.1756643239 -0.2622582831
H -2.625468447 -0.7481355206 -1.3157196509
H 1.7330550072 -3.041643324 -0.1597020561
H 3.1140404578 1.3661750146 0.4432865415
H 0.8550209648 2.6321571227 -1.1747668295
H -1.9835979634 1.8037971961 0.7362534336
H -4.2868059917 -0.7897142927 0.2750018182
*
