! pbe def2-sv(p) def2/J RI DEFGRID1 loosescf d4 GCP(DFT/SV(P)) printgap
%output
    printlevel normal
end
* xyz 0 1
C -2.0209220203 -0.5588269987 -0.6890081087
C -1.209715238 -0.0806152283 0.5370729965
H -1.8744959634 -0.0312930228 1.4059044396
C -0.6208865375 1.3253865225 0.3011793957
H -1.3496313351 1.911746322 -0.269321399
C 0.7027552817 1.2876714386 -0.5022322254
H 1.161043632 2.2803251034 -0.3998892259
C 1.6594543961 0.245568708 0.0981975171
H 2.5165450487 0.1298832883 -0.5802683732
C 0.934336824 -1.1125691201 0.1952528808
H 1.5557722633 -1.8268714205 0.7631855059
O -0.2316440283 -1.0264661025 0.9582087693
O 0.7154423955 -1.5865869034 -1.1018693288
O 2.0611905748 0.6994129313 1.3651133275
O 0.5035239631 1.0732048413 -1.8756966698
O -0.4448635171 2.013141611 1.5145593787
O -2.07682635 -1.9716595592 -0.6909420946
H -1.557057773 -0.1993423471 -1.61475434
H -3.0212003396 -0.1230356692 -0.6083366177
H 0.0030088213 -2.2516562057 -1.067614513
H 2.7306743678 0.1086518143 1.7391992348
H 0.5518473193 0.1146577217 -2.0475401051
H 0.3283039509 1.6414874179 1.9719776385
H -2.7940115386 -2.2593502061 -1.2716741564
*
