! pbe def2-sv(p) def2/J RI DEFGRID1 loosescf d4 GCP(DFT/SV(P)) printgap
%output
    printlevel normal
end
* xyz 0 1
C -2.4061034784 -1.1340211361 -0.3528335247
C -1.0743633001 -0.6240146699 0.2247008696
H -1.1303949641 -0.6500431114 1.3264433166
C -0.7657652791 0.8131900628 -0.2321844999
H -0.7954953172 0.8533836418 -1.3270353815
C 0.6412966703 1.2336650443 0.2284909991
H 0.6533688786 1.2913015732 1.3329432685
C 1.6736230045 0.1856740885 -0.2160145814
H 1.7148577195 0.1774220007 -1.3102456676
C 1.2179891216 -1.205983901 0.2873425469
H 1.1906669405 -1.2045625256 1.391160683
O -0.0671411133 -1.5075802222 -0.2226181466
O 2.0788841174 -2.2186297109 -0.0632638525
O 2.9770018326 0.4828491196 0.1958860972
O 0.9951278011 2.4823863706 -0.3103542199
O -1.7311716249 1.7375451631 0.2063980249
O -3.5190135851 -0.474267272 0.184898378
H -2.5106928786 -2.1896562746 -0.0949280999
H -2.3735739172 -1.0440884523 -1.4452357728
H 2.0934798928 -2.3256636267 -1.0271625368
H 3.0207773673 0.5534014727 1.16050751
H 0.2246528105 3.0711396339 -0.2664673084
H -1.7651279763 1.7436271087 1.1753903355
H -3.4684982573 0.467243613 -0.0507033799
*
