! r2scan-3c def2/J RI DEFGRID2 scfconv6 printgap
%output
    printlevel normal
end
%cpcm
    smd true
    smdsolvent "water"
end
* xyz 0 1
C -2.5341057943 -1.0334237149 -0.0007410357
C -1.2297978912 -0.2961354742 0.0012094869
C -1.2129541661 1.0958854338 0.0005324701
C -0.0135000524 1.780941209 -0.0003480495
C 1.1893403562 1.0953948046 -0.0004356283
C 1.1843312499 -0.2931074703 -0.000153613
C -0.0260508587 -0.9801574847 0.0005865512
O 2.3323616724 -1.0275446897 -1.92857e-05
H -2.3738920354 -2.1065633973 0.0503543171
H -3.1413314415 -0.7273319214 0.8490956224
H -3.0919021483 -0.8058882359 -0.907707806
H -2.1459014221 1.6391931781 0.0008840936
H -0.0085650225 2.8606568087 -0.0004907953
H 2.1241776217 1.6369167319 -0.0008763055
H -0.0002541002 -2.0593570219 0.0013143406
H 3.1064101132 -0.4449338999 -1.49772e-05
*
