! r2scan-3c def2/J RI DEFGRID2 scfconv6 printgap
%output
    printlevel normal
end
%cpcm
    smd true
    smdsolvent "water"
end
* xyz 0 1
C -1.9612025612 -1.0277807501 -0.5073651594
C -1.4618410413 0.0556316725 0.4447447124
C -0.0252580245 0.4413426579 0.1998974509
O 0.3933671065 1.5809848964 0.2522320408
O 0.7429107029 -0.6092675027 -0.0508736932
C 2.1377573923 -0.4023531014 -0.286558532
H -1.9094733713 -0.6827720882 -1.5368308497
H -1.3570012286 -1.9248749426 -0.411109037
H -2.9937238158 -1.2704722434 -0.2744650188
H -1.5211087083 -0.3051743277 1.4742551335
H -2.0643750543 0.9608998286 0.3669175173
H 2.6547285158 -1.246389969 0.1621317654
H 2.4567109335 0.5385566152 0.1633704683
H 2.3142908767 -0.3745571463 -1.3616476656
*
