! pbe def2-sv(p) def2/J RI DEFGRID1 loosescf d4 GCP(DFT/SV(P)) printgap
%output
    printlevel normal
end
* xyz 0 1
C -2.1788825789 -0.9405201394 -0.2124741224
C -1.1494676318 -0.3713528583 0.7801139342
H -1.6480684502 -0.3961336813 1.7586490769
C -0.7511406235 1.0933180236 0.5051215081
H -1.6028015789 1.6029914234 0.0338852877
C 0.4616504549 1.2590597835 -0.4371536024
H 0.8278446079 2.285065833 -0.2996196754
C 1.5945423407 0.3085016267 -0.0117087225
H 2.3556535364 0.2943984833 -0.7991934243
C 1.0800313615 -1.1349326181 0.1454740867
H 1.8507009715 -1.7094422609 0.6851061736
O -0.0377675655 -1.2377400285 0.9935710438
O 0.8548658672 -1.6569357852 -1.1230128545
O 2.2293643008 0.7435781035 1.1627437672
O 0.1348023549 1.1532757676 -1.7898724791
O -0.3875992205 1.738402774 1.7092976486
O -1.7480088994 -0.8439141562 -1.5493232416
H -3.1110453165 -0.3794673201 -0.0695900295
H -2.3474561403 -1.9892642775 0.0629282668
H 0.6413133609 -2.6000630034 -1.0643320146
H 1.5486607947 1.0240636345 1.7987976572
H -0.2661897515 0.2784453023 -1.953255053
H -1.1586933347 1.8375125282 2.2860797063
H -2.4478966205 -1.1588809757 -2.1376008193
*
