! wb97x-v def2-tzvp def2/J RIJCOSX DEFGRID2 scfconv7 GCP(DFT/TZ) printgap
%output
    printlevel normal
end
%cpcm
    smd true
    smdsolvent "water"
end
* xyz 0 1
C -2.9790032909544757 -0.3549128205263612 -0.0018768837824373677
C -1.968750131279246 0.5219700308731338 0.002051003569425169
C -0.5341636297252359 0.216460023066093 0.0009976960199315796
C 0.38172392543827804 1.2798738696644931 0.00017684219034598818
C 1.753594695700651 1.0462833699407272 -0.0008974348509041907
C 2.238933908864028 -0.2586361340098471 -0.0010089229795180435
C 1.33974228297094 -1.3265666977261377 -7.592689838335094e-05
C -0.029198440913495934 -1.0945812412456275 0.0009238061047481447
H -4.0073728497852 -0.0077152063017320895 -0.0010424817923193619
H -2.8237123100663464 -1.4301854130876879 -0.0067936476968797135
H -2.204784116537992 1.5856504671072982 0.005456668265133808
H 0.006367398093056911 2.299733008381798 0.00035682967368969054
H 2.443601949031339 1.8845203596556266 -0.0015087005729781475
H 3.308199083881371 -0.44528815774113006 -0.0017586590637174138
H 1.7107305678333886 -2.3470089571175787 0.00011984819175589802
H -0.7100699716626927 -1.9397699979484269 0.0020277081113760113
*
