! r2scan-3c def2/J RI DEFGRID2 scfconv6 printgap
%output
    printlevel normal
end
* xyz 0 1
C -1.5013743566 0.7544213832 0.0815179136
C -1.3908844263 -0.6710935019 -0.4523095518
C -0.1339277464 -1.2107553281 0.2331264314
C 0.7830948428 0.0086164629 0.4583803819
C -0.0544711189 1.2391534967 0.0535152526
O 1.9515950697 -0.1455160973 -0.3259836136
H -1.8713385 0.7402816948 1.1078080492
H -2.1601137811 1.3801868022 -0.5178937533
H -2.2696605236 -1.2742227247 -0.2326325545
H -1.2463529474 -0.6475926539 -1.5329297197
H -0.3861302248 -1.6675486602 1.1891236381
H 0.3893436708 -1.9471293769 -0.374380112
H 1.0724384255 0.0722249793 1.517772896
H 0.1171468619 2.0915194643 0.7089194329
H 0.2192333063 1.5169557955 -0.9659468791
H 2.535549495 0.6111420462 -0.1848290315
*
