! r2scan-3c def2/J RI DEFGRID2 scfconv6 printgap
%output
    printlevel normal
end
%cpcm
    smd true
    smdsolvent "water"
end
* xyz 0 1
C -2.6762108421 -1.683769931 0.8299933043
C -2.3237607481 -1.0065406673 -0.4971466628
C -1.2963250252 0.0726482911 -0.2937022333
C -1.7067821775 1.3780310046 -0.188433227
C -0.7997940793 2.4214794794 0.0402655033
C 0.5327648011 2.1535600675 0.1665780004
C 1.0062718532 0.8288874499 0.0671425198
C 0.08683788 -0.2311362765 -0.1652282959
C 0.6012361432 -1.5434363136 -0.2595792355
C 1.9388655903 -1.7934235922 -0.1270973629
C 2.8405800404 -0.7448765441 0.105665881
C 2.380761217 0.5377537597 0.198024476
H -3.0770619698 -0.9520857337 1.5278003576
H -1.794309008 -2.1332347269 1.279799437
H -3.4222256426 -2.4588083091 0.6722396823
H -3.2279435411 -0.5615185204 -0.9168068617
H -1.9620547444 -1.7516608674 -1.206905941
H -2.7573915385 1.6134460033 -0.2840990545
H -1.1660160464 3.4347061208 0.1155153358
H 1.2436754061 2.9473783071 0.3448121034
H -0.0704437622 -2.3674615395 -0.4402495281
H 2.3103442433 -2.8048533156 -0.2020663171
H 3.8939492692 -0.9595373257 0.2079465113
H 3.064734079 1.3558665629 0.3739526421
*
