! r2scan-3c def2/J RI DEFGRID2 scfconv6 printgap
%output
    printlevel normal
end
%cpcm
    smd true
    smdsolvent "water"
end
* xyz 0 1
C -2.2620734995 0.221992427 -0.3370424861
C -0.9695859853 0.2898137428 0.4743305131
C 0.0004775844 -0.7665731617 0.0419335833
C 1.297669566 -0.5974177807 -0.16508529
C 2.044488057 0.6918178316 0.0016334038
H -2.054023101 0.3790047672 -1.3930905299
H -2.9602418247 0.9864797829 -0.0047557715
H -2.7351239346 -0.750843223 -0.2219330351
H -0.5239257607 1.2786484786 0.3681139312
H -1.2071336146 0.1393855595 1.5324764848
H -0.4346941682 -1.7473276675 -0.1035140237
H 1.8895925181 -1.4442697962 -0.4862830915
H 3.1160371933 0.5185287187 -0.0384402109
H 1.8046335533 1.1617071921 0.9532280641
H 1.7824798876 1.389636782 -0.7937156318
*
