! r2scan-3c def2/J RI DEFGRID2 scfconv6 printgap
%output
    printlevel normal
end
* xyz 0 1
C -2.7364182537 -0.1785634385 -0.6881518614
C -1.9311075974 0.1997788363 0.5567871215
C -0.4579605178 0.0790347555 0.2965236325
C 0.1601069843 -1.1687592838 0.2332908518
C 1.5144709971 -1.2351939536 -0.0376453678
C 2.2135783647 -0.053454905 -0.2365345392
C 1.5126914729 1.1376827244 -0.1498517162
N 0.2162356183 1.2082799862 0.1085472283
H -2.5256418874 -1.2034215689 -0.9850159945
H -2.4797806354 0.4790728709 -1.5149694784
H -3.8002275495 -0.085850002 -0.4870412394
H -2.208863129 -0.4586900723 1.381905042
H -2.1511071028 1.2299457252 0.8349486746
H -0.4169707982 -2.0653414015 0.39930473
H 2.0187776512 -2.1888219697 -0.0911924658
H 3.2704138362 -0.0559869916 -0.4495478577
H 2.0069487639 2.0900420398 -0.2920073622
*
