! r2scan-3c def2/J RI DEFGRID2 scfconv6 printgap
%output
    printlevel normal
end
%cpcm
    smd true
    smdsolvent "water"
end
* xyz 0 1
C 1.7436252237 -0.8622428898 0.4165725847
C 0.9549218402 0.0297835274 -0.5425474395
C -0.4660934423 0.2994228959 -0.1090588209
O -0.9786518501 1.3950810673 -0.1827158307
O -1.172200909 -0.7279621632 0.3508707353
H 1.6891607092 -0.4750404772 1.4311515512
H 1.3873702761 -1.8890246874 0.4097514381
H 2.7865807649 -0.8742663422 0.1135586477
H 1.441076803 0.9993555781 -0.6526566657
H 0.9097159948 -0.4322249384 -1.5322528052
H -0.6748171969 -1.5664939096 0.3619525862
*
