! pbe def2-sv(p) def2/J RI DEFGRID1 loosescf d4 GCP(DFT/SV(P)) printgap
%output
    printlevel normal
end
* xyz 0 1
C -2.5531895013 -0.6900615316 -0.3310887315
C -1.1605839203 -0.3328494944 0.2086225075
H -1.1757112882 -0.3131075165 1.3125087783
C -0.7019977701 1.0402386359 -0.3120225415
H -0.7246476536 1.0251883051 -1.40707323
C 0.7384578885 1.3386184407 0.1411430919
H 0.7575872313 1.4981648006 1.233188211
C 1.6737620295 0.1660570435 -0.1659879491
H 1.8352077545 0.1222760119 -1.2517007238
C 1.0428232932 -1.1662686317 0.2841954893
H 1.0137297863 -1.1748017647 1.396732132
O -0.2588531309 -1.3356983625 -0.2160609121
O 1.8313992566 -2.1923533505 -0.1977768694
O 2.8806457127 0.3790219644 0.5176196849
O 1.2347011067 2.478359562 -0.5141312472
O -1.5674796089 2.0771206941 0.0716181752
O -3.179751533 -1.7288368493 0.372914173
H -2.4362310353 -1.0497985225 -1.3547472629
H -3.1671160681 0.2179180891 -0.335008434
H 1.3409534876 -3.0280298688 -0.1486360307
H 3.5101584403 -0.3130059552 0.2660684003
H 0.5624753692 3.1772285069 -0.4706127877
H -1.5907604077 2.1482601308 1.0383834978
H -3.4088489878 -1.4319695577 1.2653726552
*
