! pbe def2-sv(p) def2/J RI DEFGRID1 loosescf d4 GCP(DFT/SV(P)) printgap
%output
    printlevel normal
end
* xyz 0 1
C -1.8559249173 -1.0857154361 -0.5604202628
C -1.0798924399 -0.529888878 0.6671592748
H -1.6938209721 -0.6653306717 1.5646444997
C -0.751536289 0.9667710234 0.5437737428
H -1.6447847208 1.4856358819 0.1728190939
C 0.4036447582 1.1988496963 -0.4527987751
H 0.6675338296 2.2639530853 -0.4185324692
C 1.6246564023 0.3787700748 -0.015632727
H 2.3798317973 0.402576948 -0.8105379073
C 1.2302491147 -1.1040463208 0.1772414518
H 2.0265861462 -1.5872760777 0.7610716201
O 0.0810052979 -1.3085120992 0.9586086683
O 1.1229200255 -1.6752803639 -1.0984312624
O 2.2466655021 0.8971558925 1.1257753281
O 0.0036488001 0.903287877 -1.7702024805
O -0.3476683819 1.5127518701 1.7809661759
O -2.6541465203 -0.1305634103 -1.214234619
H -2.5372360677 -1.8673034528 -0.2167093072
H -1.1451119069 -1.5325608576 -1.2592511582
H 1.1199172015 -2.6423428011 -1.0369332215
H 1.560822262 1.1137687638 1.7829020787
H 0.3554248624 0.0331515458 -2.0190786335
H -1.0846038635 1.4951021532 2.4079213298
H -2.0763581817 0.4327903668 -1.7574304021
*
