! pbe def2-sv(p) def2/J RI DEFGRID1 loosescf d4 GCP(DFT/SV(P)) printgap
%output
    printlevel normal
end
* xyz 0 1
C -3.7816813081 -0.3628313394 -0.72281425
O -2.3496057546 -0.3850592733 -0.7038288348
C -1.7215723841 0.2171006139 0.2959047167
O -2.2862598462 0.7954462189 1.201487147
C -0.2417351292 0.0997185566 0.1557280449
C 0.4731859964 1.0725779338 -0.5298812622
C 1.8465881002 0.9728444837 -0.6496642243
C 2.5213813795 -0.1044633265 -0.0830107922
C 1.8010943541 -1.0798355808 0.6048911013
C 0.4304130062 -0.9775279213 0.722454834
O 3.8630201333 -0.2504735384 -0.1710711745
H -4.1460192764 0.5396502945 -0.2305633235
H -4.1595308787 -1.2416713241 -0.2007636466
H -4.0701138588 -0.3858808185 -1.7697133624
H -0.0462548564 1.9106329765 -0.9684264033
H 2.3924239938 1.7350140947 -1.184944276
H 2.3365338961 -1.9085561752 1.0388805115
H -0.1224167692 -1.7335665664 1.2580171286
H 4.2618220196 0.4814079541 -0.6671874521
*
