! wb97x-v def2-tzvp def2/J RIJCOSX DEFGRID2 scfconv7 GCP(DFT/TZ) printgap
%output
    printlevel normal
end
%cpcm
    smd true
    smdsolvent "water"
end
* xyz 0 1
C 1.2720407026544516 0.00016425204393827214 0.000129692501436219
C -0.1699392874254342 4.8616054142629904e-05 0.0014403324947473938
N -1.327796747191542 -0.0001256354408036141 -0.0012476373486125121
H 1.6419148066827385 -0.5338321008151891 0.8797326125858972
H 1.6412022493998866 1.0290724626563659 0.022181911060246626
H 1.6407487219096253 -0.49519637561734253 -0.9022402870487696
*
