! r2scan-3c def2/J RI DEFGRID2 scfconv6 printgap
%output
    printlevel normal
end
%cpcm
    smd true
    smdsolvent "water"
end
* xyz 0 1
C 0.7403876821 -0.0003632483 0.0001558261
C 1.4443370511 0.9575402373 -0.7264498598
C 2.838106251 0.963657731 -0.7299307383
C 3.5346820834 0.0004171472 -0.0003517152
C 2.8389075377 -0.9633367324 0.7292974319
C 1.4450817877 -0.9580725316 0.7264092255
Cl 0.5842292941 -2.1276794561 1.6349361074
Cl 3.6958893832 -2.1455284448 1.6254198994
Cl 5.246482569 0.0011500261 -0.0003536078
Cl 3.6939890893 2.1463026033 -1.6264110527
Cl 0.5824377308 2.1267223496 -1.6346397017
C -0.7403984949 -0.0004266458 0.0003343802
C -1.4446394525 0.9574697338 0.7267841014
C -2.8384428469 0.9634392017 0.7297783289
C -3.53471968 0.0001572243 -9.53493e-05
C -2.8386359831 -0.9633761085 -0.7297045138
C -1.444845473 -0.9580373553 -0.7262788857
Cl -0.5833884981 -2.1278739231 -1.6342890149
Cl -3.6951250617 -2.1460254738 -1.6255962455
Cl -5.2465596693 0.0006007809 -0.0002944525
Cl -3.6947412869 2.1458871378 1.626115466
Cl -0.5831527254 2.1267599279 1.6351301405
*
