! wb97x-v def2-tzvp def2/J RIJCOSX DEFGRID2 scfconv7 GCP(DFT/TZ) printgap
%output
    printlevel normal
end
%cpcm
    smd true
    smdsolvent "water"
end
* xyz 0 1
C 0.0006001848020464968 1.1715611229961835 -6.611296439039897e-05
I -1.816003681936012 0.009519796708780523 -5.2852033119774353e-05
I 1.8166892669352808 0.008662766430576781 4.420189510782316e-05
H 0.0002204301219728763 1.7700615803827902 0.9053360960534329
H 0.0005534585979259884 1.7700466616483077 -0.9054732260068209
*
