! r2scan-3c def2/J RI DEFGRID2 scfconv6 printgap
%output
    printlevel normal
end
* xyz 0 1
C 1.7138536398 0.9430905663 -0.0013400052
C 0.7132479359 -0.1778215217 0.0001215376
C 1.1331093353 -1.4424774737 0.0013535244
C -0.7132473222 0.1778509116 0.0001155507
C -1.1331247623 1.4424597988 0.0013856911
C -1.7138355285 -0.9430905251 -0.0013372056
H 1.5851035652 1.5678268591 -0.8832382938
H 2.7251984576 0.5459316539 -0.0030477962
H 1.5879940151 1.5672886264 0.8813487458
H 0.4671158749 -2.2857432652 0.0021530672
H 2.1841899967 -1.6784150235 0.0011480412
H -2.1842125848 1.6783595367 0.0009888379
H -0.4671680387 2.2857220648 0.0020392141
H -1.5856246364 -1.5673557621 -0.8836645092
H -1.5874451206 -1.5677784364 0.880936621
H -2.7251908319 -0.5459763507 -0.0022281774
*
