! r2scan-3c def2/J RI DEFGRID2 scfconv6 printgap
%output
    printlevel normal
end
* xyz 0 1
C -6.35695e-05 0.990164109 -1.12798e-05
Br -1.6128786788 -0.0945627167 -5.5562e-06
Br 1.612902608 -0.0945412268 -5.767e-07
H -0.0009220213 1.5955622191 0.9034371119
H -0.0002174418 1.5965625105 -0.9028165185
*
