! wb97x-v def2-tzvp def2/J RIJCOSX DEFGRID2 scfconv7 GCP(DFT/TZ) printgap
%output
    printlevel normal
end
%cpcm
    smd true
    smdsolvent "water"
end
* xyz 0 1
C -3.706637260065353 -0.2112170804703771 -0.05151534401440041
C -3.0521774910549473 -1.0554028513716012 0.8418759959086217
C -1.6625851797226445 -1.1370418718303692 0.836199366012699
C -0.9093572455170829 -0.36695753193349456 -0.05705404246334852
C -1.575056633954465 0.4745347644865706 -0.9559812134816916
C -2.9638214318417697 0.5488098442391484 -0.9534233898831959
C 0.5653437168336919 -0.495343729180845 -0.07201027139900057
C 1.140746378454716 -1.7643237697524412 -0.2340863266822798
C 2.517642176290484 -1.944204469536668 -0.26497247251687234
C 3.362953388662304 -0.8467651703454261 -0.12940092893039545
C 2.8268354656870054 0.42394874705756336 0.04816332278732161
C 1.4461145059137488 0.5829088612504882 0.07731037728942078
Cl 0.8257162703630897 2.2083537368067416 0.3786000487536024
H -4.790193667012993 -0.147958346991139 -0.048537912338883486
H -3.622894759678441 -1.6513712127345521 1.5471697750889073
H -1.1533973051530693 -1.7926490940237727 1.5362816299988058
H -1.0041128223258482 1.0581209811854044 -1.6707072792154805
H -3.4676682847053586 1.199291283524871 -1.6615887080828222
H 0.47882553077389467 -2.616558380532463 -0.35334205218023856
H 2.928914659469388 -2.939087702034819 -0.3998616871997692
H 4.440341003758154 -0.9723221063861323 -0.15383316043473275
H 3.474763373290749 1.283914601271683 0.17470070337617685
*
