! pbe def2-sv(p) def2/J RI DEFGRID1 loosescf d4 GCP(DFT/SV(P)) printgap
%output
    printlevel normal
end
* xyz 0 1
C -2.3650929157 0.8516491721 -0.2446124766
O -1.099811594 0.632341336 0.3922874105
C -0.434575236 -0.4755948488 0.1410657105
O -0.8037266777 -1.3687047147 -0.5844646926
C 0.8966038738 -0.4803573058 0.8864520015
C 1.8704982188 0.1690393599 0.0531486611
N 2.6335396544 0.6915682381 -0.6205985585
H -2.6670964091 -0.0416042069 -0.7913211885
H -2.2552420408 1.6943978207 -0.9248126569
H -3.0812160849 1.0876691986 0.5391907611
H 1.2104733147 -1.5096019857 1.0687287183
H 0.8000837081 0.0760148715 1.8202588725
*
