! r2scan-3c def2/J RI DEFGRID2 scfconv6 printgap
%output
    printlevel normal
end
* xyz 0 1
C -1.2045914805 -0.2547264984 0.0160241256
N -5.76772e-05 0.5474469218 -0.0862038837
C 1.2045767776 -0.2546832028 0.0159971332
H -1.2348743311 -0.945019972 -0.8272029703
H -2.0719502223 0.39954312 -0.0366421469
H -1.2581870115 -0.8444037855 0.9445168295
H -8.84785e-05 1.2415974827 0.6552523183
H 2.0716012151 0.3998844878 -0.0356335476
H 1.2357210825 -0.9441010316 -0.828036431
H 1.2587544496 -0.8448338905 0.9440968407
*
