! pbe def2-sv(p) def2/J RI DEFGRID1 loosescf d4 GCP(DFT/SV(P)) printgap
%output
    printlevel normal
end
* xyz 0 1
C -1.9464718733 -0.1007945054 -0.0376157525
C -0.5623961327 0.5334757377 0.0108198183
C 0.5440580795 -0.5192289071 0.0154304484
N 1.8529581817 0.1206068312 -0.0395915419
H -2.0998784332 -0.7486878033 0.8228627353
H -2.7154906557 0.6670101382 -0.0322389568
H -2.0599952546 -0.6971442686 -0.9397529397
H -0.4720454359 1.1494229441 0.9087022233
H -0.4176100205 1.1823899548 -0.8535745681
H 0.4183401981 -1.1690281853 0.8997498172
H 0.4497018618 -1.1489344769 -0.8742320005
H 2.5814043106 -0.58419569 -0.0267768725
H 1.9791045551 0.7044838347 0.7808711244
*
