! wb97x-v def2-tzvp def2/J RIJCOSX DEFGRID2 scfconv7 GCP(DFT/TZ) printgap
%output
    printlevel normal
end
* xyz 0 1
C 3.5508873267941427e-06 -2.5145818379510967 7.848212984517462e-05
C 1.2139628874769053 -1.8349291500251432 6.92620098366317e-05
C 1.2055281901226325 -0.45054269281785414 4.335811316581625e-06
C -0.00010633743732114395 0.27330603388072583 -9.759464073415317e-05
C -1.2056609593417058 -0.45064557864488525 1.454125956656423e-05
C -1.214002529823085 -1.835019455973445 7.654699196951338e-05
Cl -2.711853394592106 0.4253306245876352 -0.00010945474037931742
C -0.0004306289011180633 1.6880265642238204 -0.0011068307276131148
N 0.0007858274922246873 2.84784343024885 0.0011036350303961241
Cl 2.711711806335012 0.4254578597579442 -0.00012966644884090548
H 3.6359128169090516e-05 -3.5989977084519786 6.205410057057337e-05
H 2.1522526867860696 -2.37613047363983 2.748428464331937e-05
H -2.152263192362371 -2.3762674607165564 4.0453514268624105e-05
*
