! wb97x-v def2-tzvp def2/J RIJCOSX DEFGRID2 scfconv7 GCP(DFT/TZ) printgap
%output
    printlevel normal
end
* xyz 0 1
C -2.4774920413686847 0.8888599330726271 0.8027222077215772
C -1.703286152261597 -0.14655926343977016 0.04087251235969308
O -2.28717525355606 -1.032933023924006 -0.5845534009449994
C -0.21557643637134616 -0.08628863691806908 0.05127222883652843
C 0.51213686086356 -1.0677542927610115 -0.6365692575080374
C 1.8991509104035196 -1.0388300582448393 -0.6412501340392844
C 2.5782980628663226 -0.02792524269195095 0.03925323445338872
C 1.8649125923482275 0.9533306130579469 0.7233101899294418
C 0.4747507049866899 0.9256993059613062 0.731504553856436
H -2.256233962446152 1.8896821772919663 0.4155697527718788
H -2.1899744923958853 0.8836220685803045 1.859470474068258
H -3.545182526694801 0.6885995121765434 0.7104983251112188
H -0.021069631809823092 -1.8511499487319103 -1.1640211318569502
H 2.455383812649278 -1.8032562326727257 -1.1741413763177586
H 3.6635051800094707 -0.006185109977213382 0.03558819880371645
H 2.392257633567524 1.740793218247388 1.2517531830956046
H -0.06793807305917203 1.6953048980137382 1.2684665105878241
*
