! pbe def2-sv(p) def2/J RI DEFGRID1 loosescf d4 GCP(DFT/SV(P)) printgap
%output
    printlevel normal
end
* xyz 0 1
C -1.8708931212 -0.5955803841 -0.8594329176
C -1.199780101 -0.1399405024 0.4462541477
H -1.9589762122 -0.1734520383 1.2388655108
C -0.6351254475 1.2852798601 0.3588019268
H -1.3940710786 1.9281832893 -0.1104126755
C 0.6485270035 1.3295819023 -0.4944440624
H 1.1148939257 2.3126151086 -0.3365539472
C 1.6555494862 0.2915323519 0.028401755
H 2.4357864876 0.1566617014 -0.7281760348
C 1.0244672221 -1.097805036 0.2555457605
H 1.6739464902 -1.6273876871 0.9700745965
O -0.2214136256 -1.0707652871 0.9093110364
O 0.976214802 -1.7690880181 -0.9657795402
O 2.2919755743 0.7444112708 1.1935456813
O 0.3977682729 1.0969175577 -1.8546050439
O -0.2839914247 1.785999128 1.629616128
O -2.7235128676 -1.6961991847 -0.6418583005
H -1.1070282778 -0.8248215975 -1.6096008627
H -2.5133929983 0.2022365041 -1.2352804235
H 0.8632188456 -2.7206027723 -0.8235879287
H 1.6118762488 1.0675928421 1.8108704442
H 0.1079544996 1.9145079117 -2.2831343954
H -1.0624900982 1.8101397456 2.2049928179
H -2.2136070831 -2.4081839228 -0.2312280047
*
