! r2scan-3c def2/J RI DEFGRID2 scfconv6 printgap
%output
    printlevel normal
end
%cpcm
    smd true
    smdsolvent "water"
end
* xyz 0 1
C -2.4847834665 -1.0723735821 -0.5076961547
C -1.7149424242 0.0878149618 0.0445743971
O -2.2637174853 1.0889656427 0.470575133
C -0.2271078659 0.0021313672 0.0174247336
C 0.5079316858 1.1589990535 -0.2377076961
C 1.8905682803 1.0775463123 -0.259121091
N 2.5560006036 -0.0430223853 -0.0271304988
C 1.8583312777 -1.1357850671 0.2392024394
C 0.4727843762 -1.1757913858 0.2683554969
H -2.9387572142 -0.7487168117 -1.4437183733
H -3.2977564716 -1.3244557844 0.1694264868
H -1.8588482013 -1.9353727703 -0.6988783988
H -0.0045407067 2.0906612672 -0.4190318034
H 2.4977509399 1.9480949525 -0.4644508072
H 2.4437524749 -2.0233026187 0.4347801134
H -0.0358780481 -2.0938028552 0.512406391
*
