! wb97x-v def2-tzvp def2/J RIJCOSX DEFGRID2 scfconv7 GCP(DFT/TZ) printgap
%output
    printlevel normal
end
* xyz 0 1
C -2.559729208389006 -0.2073444880020706 1.0125289376891087
S -1.8552871307158 0.24208219449744758 -0.6251662615359256
C -0.10736281573721498 0.07495545210594116 -0.24572787764507878
C 0.6139057556253591 1.1746134625095521 0.22516415574952348
C 1.9700454984844682 1.043643907443985 0.5143169426811153
C 2.6104261737628955 -0.17980340187444938 0.3315416036318548
C 1.8923156046359493 -1.274703258126637 -0.14386061267645148
C 0.5360074251020902 -1.1504362292141344 -0.4351173501353277
H -2.2230516483433993 0.4956197065107206 1.7782589203590826
H -2.2763941497421714 -1.2274410745731332 1.2828978646730107
H -3.647365530625547 -0.1467270689374759 0.918449710721821
H 0.11503512421004587 2.1280563783393087 0.36583205297114774
H 2.5257295630502434 1.9011501604681842 0.8808074009519774
H 3.6673140534219266 -0.2794427596495726 0.5574300747270047
H 2.3873321234198905 -2.229418537128537 -0.2916961734591267
H -0.023071658139756705 -2.0027639890811892 -0.8076345854920549
*
