! wb97x-v def2-tzvp def2/J RIJCOSX DEFGRID2 scfconv7 GCP(DFT/TZ) printgap
%output
    printlevel normal
end
%cpcm
    smd true
    smdsolvent "water"
end
* xyz 0 1
C -3.6592456834762683 -0.024868389137597677 5.1082585624206765e-05
C -2.223160174211972 0.5066618200716816 -6.24765443147993e-05
C -1.2567766755889784 -0.6555997167892559 1.2124552601213067e-05
I 0.837393735614735 0.0204840980917284 -4.986484495321801e-05
H -4.372272515323024 0.8052665708499935 -9.921015949048108e-06
H -3.852631775852322 -0.6377890080766822 -0.8863762176412056
H -3.852567272009713 -0.6376059927950702 0.8866189090087226
H -2.055900977683351 1.1320013774904645 0.8828517954453138
H -2.055970663544824 1.1318139058544918 -0.8831218670828991
H -1.3336180076474848 -1.2730739433629839 -0.8947403557859014
H -1.3334881923770947 -1.272854332666773 0.8949305158370214
*
