! pbe def2-sv(p) def2/J RI DEFGRID1 loosescf d4 GCP(DFT/SV(P)) printgap
%output
    printlevel normal
end
* xyz 0 1
C -2.0356131522 -0.9809753832 -0.6503450013
C -1.2525015263 -0.1601823362 0.3882415342
H -1.9256967214 0.1349376251 1.2014861853
C -0.6937276956 1.1308621273 -0.2357196394
H -0.6952757408 1.0527170132 -1.3351015739
C 0.7598858716 1.3299940681 0.2042774536
H 0.8055848491 1.4070629887 1.3011923813
C 1.5694021514 0.1076293153 -0.2374131251
H 1.5096082035 0.0248222891 -1.3321015622
C 0.9464434467 -1.1684751796 0.3725749413
H 1.6119181818 -1.540685084 1.1686729549
O -0.2558322125 -0.9284333461 1.0534337475
O 0.8178202082 -2.1066880942 -0.6513962964
O 2.8969857417 0.3066407215 0.1772040998
O 1.2324891358 2.5103394983 -0.3922213318
O -1.5145266186 2.1968987199 0.163479471
O -2.5789386831 -2.1621286143 -0.1200725274
H -1.3658797554 -1.2965720981 -1.4533198249
H -2.8180889382 -0.3344457898 -1.0679778217
H 0.4166257979 -2.9195532481 -0.3063256593
H 3.4733428506 -0.361838866 -0.2190837698
H 2.1840356796 2.5780531066 -0.2224768943
H -1.0895951324 3.025633918 -0.1076921728
H -3.1845674409 -1.9440091271 0.6023655319
*
