! r2scan-3c def2/J RI DEFGRID2 scfconv6 printgap
%output
    printlevel normal
end
%cpcm
    smd true
    smdsolvent "water"
end
* xyz 0 1
C -1.089580228 -1.8648514744 -0.0001769241
C 0.2423035026 -1.4903753134 -9.75945e-05
C 0.5512625006 -0.1332583881 1.09356e-05
C -0.440493295 0.8444984637 8.05249e-05
C -1.7737180925 0.4555391913 2.99297e-05
C -2.0880136436 -0.908649112 -0.0001135886
O -2.7891853663 1.3355951178 0.0001833199
N 1.9132519788 0.2745337624 1.52066e-05
O 2.782182181 -0.5844736209 0.0004424331
O 2.1658784711 1.4707540215 -0.000444445
H -1.3514100665 -2.9099615613 -0.000277251
H 1.0393261402 -2.2158063875 -0.0001207727
H -0.1494980785 1.8839723681 0.0001886314
H -3.1288016137 -1.189205566 -0.0001697298
H -2.4723092497 2.2527091019 0.0004680703
*
