! pbe def2-sv(p) def2/J RI DEFGRID1 loosescf d4 GCP(DFT/SV(P)) printgap
%output
    printlevel normal
end
* xyz 0 1
C -1.6440261916 -1.1320545985 -0.7762650171
C -1.2840341256 -0.5604994225 0.6120139792
H -2.1004660972 -0.772532843 1.3093712952
C -1.0437093339 0.9566589296 0.6198390248
H -1.8159827452 1.4628710297 0.034479784
C 0.3429309213 1.3075086289 0.0262628946
H 0.9100199128 1.8475147549 0.7939326547
C 1.1745750718 0.0814525754 -0.4031294352
H 0.8271780252 -0.2538519286 -1.389648771
C 1.0620688875 -1.1097835146 0.5546088102
H 1.831042013 -0.9985665043 1.333926221
O -0.1674944306 -1.1889707129 1.2353097516
O 1.2844761938 -2.2678394073 -0.1923787315
O 2.5411897821 0.4144889379 -0.4699792995
O 0.245986865 2.1991536838 -1.057455099
O -1.1846152725 1.4539767728 1.9292923968
O -1.4965540213 -0.1523931354 -1.7874029545
H -2.6814593298 -1.4796400634 -0.74861455
H -0.9885793236 -1.9878889667 -0.9763966741
H 1.4010902798 -3.028188559 0.397373585
H 2.6397607694 1.180696807 -1.0561925111
H -0.3272278305 1.7956876185 -1.7289036786
H -0.6585530768 0.9083601425 2.532755404
H -1.8599604909 -0.5087212947 -2.6107366901
*
