! r2scan-3c def2/J RI DEFGRID2 scfconv6 printgap
%output
    printlevel normal
end
%cpcm
    smd true
    smdsolvent "water"
end
* xyz 0 1
C -1.9446268914 0.6452773796 2.6415e-05
C -1.9088431716 -0.7398705602 4.54666e-05
C -0.6900955927 -1.3964491262 3.08054e-05
C 0.4662080252 -0.6467514891 -6.09631e-05
C 0.4619046593 0.7451112413 -0.0001347972
C -0.7759568022 1.3828489253 -6.198e-06
O 1.5946369817 1.486199452 2.55027e-05
F 1.6850542742 -1.2854137959 4.07932e-05
H -2.8923619893 1.1590826677 -9.91337e-05
H -2.8227134732 -1.3103764074 -0.0002503388
H -0.6214451948 -2.4719423834 -0.0001984592
H -0.7890056911 2.4603813847 0.000461037
H 2.3806837556 0.917474314 9.6108e-05
*
