! pbe def2-sv(p) def2/J RI DEFGRID1 loosescf d4 GCP(DFT/SV(P)) printgap
%output
    printlevel normal
end
* xyz 0 1
C 1.7286030506 1.4818680733 0.4502581081
C 0.4494018078 0.7801403698 0.922234857
H 0.2470959222 1.1405529578 1.9336478235
C 0.4481714769 -0.7787770888 0.9238634478
H 0.2454538821 -1.1367991738 1.9360688643
C 1.7264431776 -1.4831581087 0.45344601
O 2.7775461884 -1.2760401015 1.3765151251
S 3.7957764885 -0.0019038654 1.0401557901
O 4.735364884 -0.0012496905 2.1248921384
O 2.7798963879 1.2749514857 1.3730727973
C -0.7713250577 -1.1161122504 0.0241866056
C -0.4364579063 -0.6718082407 -1.3874474101
C -0.4353312864 0.6693812552 -1.3888767695
C -0.7695529463 1.1173599851 0.0217465069
C -1.7620033334 0.0018429757 0.4205697902
Cl -3.2417073804 0.0018577858 -0.5560246532
Cl -2.2263872332 0.0039190919 2.1183441156
Cl -1.3613211486 2.7626523948 0.1663417063
Cl -0.078867605 1.7378787702 -2.6488960803
Cl -0.0808000553 -1.7435851052 -2.6446684829
Cl -1.3657614729 -2.7601755368 0.1723886182
H 1.5438760642 2.558594684 0.4183614175
H 2.0299367262 1.1432108333 -0.5443306772
H 1.5401723341 -2.5596682877 0.4232013257
H 2.0287790367 -1.146600731 -0.5415276768
*
