! pbe def2-sv(p) def2/J RI DEFGRID1 loosescf d4 GCP(DFT/SV(P)) printgap
%output
    printlevel normal
end
* xyz 0 1
C -1.9927563592 -0.5785860257 -0.7500575902
C -1.1877207708 -0.1093739567 0.473326876
H -1.8712237464 -0.0721696741 1.3292586275
C -0.6066093115 1.3036507089 0.2607374954
H -1.3228885871 1.8849262464 -0.3300100395
C 0.7394623177 1.2899547245 -0.5018298656
H 1.179486369 2.2887008548 -0.381536138
C 1.6919045269 0.261496247 0.1260585733
H 2.5730694764 0.1623532449 -0.523686056
C 0.9943067867 -1.1120692834 0.1968060973
H 1.6049974474 -1.7998844763 0.8046832442
O -0.2146178974 -1.0610251017 0.8971502217
O 0.8658588206 -1.5949628823 -1.1091200354
O 2.0440493949 0.7190359389 1.4060934347
O 0.5846138186 1.0830140742 -1.8816595134
O -0.4776932821 1.9893049557 1.4816288668
O -2.4642462316 -1.8863593669 -0.5076715722
H -1.3728740555 -0.5541090939 -1.652757701
H -2.8254773739 0.123208806 -0.8757158161
H 0.4316772397 -2.4622023899 -1.0934341955
H 2.7214193986 0.1478809605 1.7964651093
H 0.6388808268 0.1290149718 -2.0635873677
H 0.2858213373 1.626670332 1.96218449
H -3.1008324999 -2.1262870485 -1.1952246819
*
