! r2scan-3c def2/J RI DEFGRID2 scfconv6 printgap
%output
    printlevel normal
end
* xyz 0 1
C 2.4762604496 0.582635026 -1.0485913398
C 1.6952200338 -0.0211438632 0.0804768509
O 2.2416140453 -0.5892848749 1.012169215
C 0.2150255108 0.042588297 0.0043238027
C -0.4921873496 1.1244282107 -0.5176646632
C -1.8756282716 1.073704171 -0.5262908248
C -2.5022174765 -0.0514728664 -0.0104976245
N -1.8427239961 -1.0857419439 0.4922372827
C -0.5255612297 -1.0338768502 0.5019993677
H 3.3065997105 1.1592794237 -0.6478527087
H 1.864448487 1.1906013729 -1.7033468242
H 2.9047630327 -0.2364604495 -1.6248795385
H 0.0221255201 2.0023269885 -0.8774527612
H -2.4575494501 1.8927331387 -0.9158797812
H -3.5795990615 -0.1348183577 0.0122510959
H -0.0111729258 -1.8901988628 0.9180712899
*
