! wb97x-v def2-tzvp def2/J RIJCOSX DEFGRID2 scfconv7 GCP(DFT/TZ) printgap
%output
    printlevel normal
end
* xyz 0 1
C 2.1475551491667284 1.0172021025843023 -0.5811240943785889
C 1.1860687938774959 -0.10267235186419076 -0.24907961590160285
C 1.6858437567780638 -1.012775387555894 0.8549169410883998
O -0.05430655184593849 0.5600229325183381 0.20304767037285842
C -1.2086177124033997 -0.11631711591807345 0.07346172121615621
O -1.2870051817553154 -1.241609192262009 -0.3965175679026415
C -2.382857967932232 0.6876144645155344 0.5348892413052461
H 1.7411533394540708 1.664903551777843 -1.3628473290676923
H 2.3613834390332684 1.6206185675082336 0.3066371637687196
H 3.087121277396675 0.5890921417502217 -0.9418627005064973
H 0.9399548463562 -0.6782836146465842 -1.145955780356939
H 1.9092928707817447 -0.4314205290509034 1.7550555904253302
H 2.6043831354579914 -1.5084529908087807 0.526631385931569
H 0.9495908250370093 -1.7822925199958042 1.1007792586143044
H -2.7966614057352355 1.2097869753550323 -0.33548622611977436
H -2.0974653037009325 1.432120888950125 1.2788640660335528
H -3.1513148325871767 0.02137405532908339 0.9291166660224186
*
