! wb97x-v def2-tzvp def2/J RIJCOSX DEFGRID2 scfconv7 GCP(DFT/TZ) printgap
%output
    printlevel normal
end
%cpcm
    smd true
    smdsolvent "water"
end
* xyz 0 1
C -2.994807844400576 0.6462463410345138 -0.7547360170785439
C -2.2718427399973407 0.36311920121489233 0.5674275396982331
C -0.8504749987337866 -0.08037087389589534 0.33841921261489794
C -0.547987104593919 -1.4331779821208646 0.14455607042597146
C 0.7596476862829961 -1.8274449092412395 -0.124299448377522
C 1.7849211991160374 -0.889090435402934 -0.2044021224874525
C 1.4817480853709921 0.4581263715818433 -0.010500932356344694
C 0.17537135221638533 0.8626806395271381 0.2588770795238219
O 2.4473001744687357 1.4412435442134548 -0.07218325246286282
H -2.4842736782995525 1.4369888616738555 -1.3143719098785935
H -4.025773627185753 0.9666051033052956 -0.5739228724678567
H -3.0208983814897556 -0.2502348699421115 -1.3830693588615504
H -2.8119225951621285 -0.4159978197643505 1.116294914926923
H -2.279401036701991 1.2669155600105546 1.186232396927544
H -1.3393060751092796 -2.1746463545780346 0.20633963469059935
H 0.9902067838203356 -2.8784935250755845 -0.2701161621083072
H 2.8075917218997146 -1.1921509444251397 -0.4108215749106577
H -0.03465236321377796 1.9185121879646136 0.40677623362280413
H 3.3023200495378586 1.0315135067401178 -0.265732958707273
*
