! pbe def2-sv(p) def2/J RI DEFGRID1 loosescf d4 GCP(DFT/SV(P)) printgap
%output
    printlevel normal
end
* xyz 0 1
C -2.3989926396 -1.1997539128 -0.187100522
C -1.07905476 -0.634118514 0.3765822259
H -1.1073868603 -0.6043272672 1.477047628
C -0.808172048 0.7996528118 -0.1084505083
H -0.9955012296 0.8510846767 -1.1927963612
C 0.6469253336 1.2278089634 0.1760329359
H 0.7710362521 1.3520090545 1.2587278587
C 1.62809983 0.158241697 -0.3038463086
H 1.5523612795 0.0569437774 -1.4002848187
C 1.225557419 -1.1889645838 0.3349203857
H 1.3017078591 -1.0968445888 1.4321105396
O -0.0782810936 -1.5368129234 -0.0532276985
O 2.0828624258 -2.2053729351 -0.0461548549
O 2.9335080753 0.5170948127 0.0646593926
O 0.8876894243 2.5015906898 -0.367184498
O -1.6912915587 1.6506256879 0.5796027122
O -3.4192051676 -0.2578707887 -0.3620944732
H -2.7297113633 -2.0223610319 0.4601179164
H -2.1876906721 -1.6069203653 -1.1792168939
H 1.7596612829 -2.5997032094 -0.8720360031
H 3.5045504458 -0.2642028299 -0.0077811123
H 1.0791110358 2.4312729376 -1.313472467
H -1.4383898299 2.5687306419 0.3960983554
H -3.5018110356 0.2865751669 0.4349391283
*
