! pbe def2-sv(p) def2/J RI DEFGRID1 loosescf d4 GCP(DFT/SV(P)) printgap
%output
    printlevel normal
end
* xyz 0 1
C -2.5616651015 -0.6756544221 -0.3132085525
C -1.1734496819 -0.3100744106 0.2246287723
H -1.2144208887 -0.2530962507 1.3245090359
C -0.698197258 1.0425813773 -0.3428357045
H -0.6876254365 0.9670302826 -1.4371033514
C 0.7278493723 1.3351220079 0.1611074855
H 0.7212324861 1.4407731947 1.253155905
C 1.6463657691 0.1567740213 -0.1948476724
H 1.7362575422 0.0764186031 -1.2894537082
C 1.030705806 -1.1595325568 0.316516161
H 1.0191533885 -1.1303972628 1.4271184721
O -0.2818823102 -1.3449162324 -0.1564975003
O 1.8172643823 -2.1929050422 -0.1517126534
O 2.9009568451 0.3715395633 0.3939597671
O 1.2112417054 2.5632248673 -0.3065086905
O -1.5902880053 2.0819399679 -0.0500178476
O -3.1568247309 -1.7295608196 0.3955856392
H -2.4671604176 -0.9191127537 -1.3776806732
H -3.2181249831 0.188389011 -0.1982224868
H 1.396614151 -3.0467278504 0.0333068585
H 3.4788079303 -0.3780643965 0.1848214009
H 1.2914088177 2.5472524741 -1.2711239171
H -1.4728398895 2.3756951119 0.8650391846
H -2.6221363849 -2.5271351162 0.2757360821
*
