! pbe def2-sv(p) def2/J RI DEFGRID1 loosescf d4 GCP(DFT/SV(P)) printgap
%output
    printlevel normal
end
* xyz 0 1
C -2.3951540952 -0.8327169438 0.4374188317
C -0.9305125836 -0.4046773726 0.5922843892
H -0.6268943926 -0.5590787633 1.6373416117
C -0.7250184052 1.0851726521 0.2295315377
H -1.5020170325 1.3954882296 -0.4792046727
C 0.6503195857 1.249834906 -0.4487235006
H 0.9729592227 2.2909129042 -0.3426409038
C 1.6720170934 0.3307611239 0.2532002997
H 2.6505546129 0.4614726629 -0.2245397928
C 1.2392462724 -1.1466508849 0.0451202357
H 1.4399150417 -1.7150810741 0.9686658625
O -0.142118575 -1.2311028159 -0.2559504927
O 1.9470029539 -1.7767197494 -0.9563425249
O 1.7114827626 0.6845607745 1.6145602513
O 0.6076781016 0.9779331473 -1.8269339487
O -0.8715077179 1.9161820281 1.3480759167
O -2.8368539987 -0.7504063619 -0.8931343043
H -3.0161521062 -0.147496174 1.0172376375
H -2.5149827504 -1.8506548449 0.8248743414
H 1.7879451607 -1.3327319113 -1.8054323578
H 2.5341130954 0.3773791639 2.0200716303
H 0.0013137519 0.2359995131 -1.9749046438
H -0.1232693025 1.7618606126 1.9479019653
H -2.3734836148 -1.4251055617 -1.4097485545
*
