! pbe def2-sv(p) def2/J RI DEFGRID1 loosescf d4 GCP(DFT/SV(P)) printgap
%output
    printlevel normal
end
* xyz 0 1
C -1.74970513 -1.382490126 -0.4807967434
C -1.133941597 -0.4820980422 0.6079266116
H -1.8403296828 -0.3767765743 1.4394558499
C -0.846890894 0.9368401839 0.0779600429
H -1.1204380119 0.9839648309 -0.9884383516
C 0.6483017265 1.262149679 0.2238009412
H 0.8782027535 1.3560474949 1.2927340125
C 1.4613055284 0.1098486136 -0.3777266131
H 1.1465264821 -0.0696838151 -1.412719286
C 1.1749930547 -1.1751326107 0.4318968034
H 1.9719244901 -1.3122666175 1.178627784
O 0.0042825335 -1.0834477722 1.2115205291
O 1.1433828563 -2.2456531914 -0.4572429582
O 2.8306884317 0.3918576719 -0.4561105305
O 0.9626353778 2.5090630821 -0.3397630258
O -1.6377731592 1.8462840269 0.8061676001
O -2.8676522357 -0.7960174884 -1.093899894
H -2.0032827297 -2.3505355396 -0.0319704626
H -1.0210383187 -1.5498814399 -1.2771821527
H 1.1422697583 -3.087766399 0.0229458451
H 3.1538910842 0.7244854557 0.3945027927
H 1.0073330845 2.4348761523 -1.3041123914
H -1.3479120223 2.7473013483 0.5953695214
H -3.5671136347 -0.6649406837 -0.438026844
*
