! r2scan-3c def2/J RI DEFGRID2 scfconv6 printgap
%output
    printlevel normal
end
* xyz 0 1
C -2.3840412 -1.1803304633 -0.2790808829
C -1.0652619833 -0.6185308065 0.2626223534
H -1.1069372776 -0.5745429802 1.3632328477
C -0.7790712953 0.7950925284 -0.2655633693
H -0.8024622726 0.773907511 -1.3678139511
C 0.6206843102 1.2321797191 0.183793558
H 0.6092847877 1.3393636642 1.2811771306
C 1.6797434017 0.1893991058 -0.1886109477
H 1.7892051846 0.158508732 -1.282243418
C 1.2433358516 -1.2044532646 0.2824223456
H 1.2757554294 -1.2145462509 1.3919156179
O -0.0617269444 -1.522098827 -0.152901367
O 2.0971064985 -2.1382810639 -0.2587749334
O 2.9052473852 0.4793932042 0.4279570561
O 0.9985613454 2.4489552299 -0.411977789
O -1.6829053274 1.7524270892 0.2276088553
O -3.448598536 -0.3748687172 0.1702073192
H -2.4818924817 -2.2107362446 0.0791709718
H -2.327635229 -1.1913689373 -1.3742783013
H 1.7783933436 -3.0321130228 -0.0533574202
H 3.1782593177 1.3681774594 0.1511889766
H 0.2910574405 3.0934189776 -0.2595818297
H -2.5779817423 1.3695181167 0.2198023059
H -4.2878150584 -0.7523641639 -0.1302160928
*
