! wb97x-v def2-tzvp def2/J RIJCOSX DEFGRID2 scfconv7 GCP(DFT/TZ) printgap
%output
    printlevel normal
end
* xyz 0 1
C -2.5661746638623377 -0.885722379508878 0.3503441120024218
C -1.1385882294859644 -0.43390252543980534 0.5947337865148339
H -0.9806542987191431 -0.370991481537548 1.6842994525740551
C -0.8067652102679166 0.9160787851038696 -0.03969179126821776
H -0.9985803127529085 0.864086815278572 -1.121545782787818
C 0.6621306107169249 1.2370229116666502 0.18658391274722236
H 0.8307501755146922 1.3715949232557152 1.2685539130568353
C 1.5496464549344569 0.09634863066536632 -0.30623809402570734
H 1.4537443959146328 -0.0003019879751420283 -1.3956650561693933
C 1.1068770910586847 -1.2204725728035501 0.3351145398710541
H 1.2472606614319304 -1.1910286171055362 1.426923592899529
O -0.27741827387388746 -1.4419200264662946 0.035794594448728505
O 1.8300151989825444 -2.3265564451488108 -0.13254643018254642
O 2.9288012470755 0.37166753721656365 -0.05025762231157737
O 0.9486642460033857 2.45644368587464 -0.5076722990029644
O -1.6528893057387513 1.895763796684483 0.5712548515523558
O -2.9096338339715113 -0.940114753628301 -1.0388619679098894
H -3.2523822596686482 -0.17522483815275464 0.8175143537859375
H -2.7090236727228514 -1.8662049998116836 0.8242525003697845
H 1.8592206088684233 -2.283205078229103 -1.1001435094804561
H 3.0392143483730703 0.4698543172348096 0.9069281791869775
H 1.8687917838741286 2.685549218498284 -0.3193608591839188
H -1.421520609152407 2.7524732994245507 0.18824592562254264
H -2.3420884261882953 -1.6047464190924237 -1.451199421283055
*
