! wb97x-v def2-tzvp def2/J RIJCOSX DEFGRID2 scfconv7 GCP(DFT/TZ) printgap
%output
    printlevel normal
end
* xyz 0 1
C 0.7405186600357233 0.0002210583170504632 -0.0034983417933793773
C 1.4511508612297364 0.8307626438666469 -0.8703048841087488
C 2.847394620811475 0.8378334875026063 -0.8787643090018438
C 3.5434726823675775 0.0012004257989132743 0.0010570378835272007
C 2.8451748031881174 -0.836390903893704 0.8782043013502887
C 1.4490040982921242 -0.8303928404283043 0.8651135623063616
Cl 0.5596620574144525 -1.864293935268802 1.9354214282323792
Cl 3.703232477188183 -1.8688212127501498 1.964775234893242
Cl 5.270279928230694 0.0024101435510590556 0.004457660010298666
Cl 3.70831641039051 1.8708654448626862 -1.9624928632841097
Cl 0.5644131843440412 1.8639461026717683 -1.943428264281055
C -0.7405146315112787 0.0009112475545115328 -0.003507143278311999
C -1.4491805135791433 0.8312329779518278 0.8652243807957176
C -2.845353496837436 0.8364208312108947 0.8787836891522617
C -3.5434665938664582 -0.0016643060210473801 0.0019598319314936357
C -2.8472052654434883 -0.837831072251651 -0.8781587767065369
C -1.450966315637816 -0.8299468839363942 -0.8701712599525876
Cl -0.5640070035158781 -1.86263920680958 -1.9435924138473126
Cl -3.707887139349796 -1.8713875087516696 -1.9615760266149493
Cl -5.270271387327432 -0.004116520652242843 0.006150036218065378
Cl -3.7036475937971676 1.8683650095564244 1.9656302762488502
Cl -0.5600626178778936 1.8656536392728345 1.9352079020716335
*
