! wb97x-v def2-tzvp def2/J RIJCOSX DEFGRID2 scfconv7 GCP(DFT/TZ) printgap
%output
    printlevel normal
end
* xyz 0 1
C 2.2932535479812257 -0.35874280014105614 -0.39808774526510515
C 1.0827336183037868 -0.2403151659710991 0.5135060668428355
H 1.3347680123203334 -0.620740966080557 1.5107178995702304
C 0.5011326400458042 1.1727552948670643 0.5793983395098986
C -0.5005871926290415 1.172592783487334 -0.5781346287611088
C -1.081000550974368 -0.2412088106607606 -0.5134922237640276
H -1.32861002399467 -0.6224148812858058 -1.5115425280252732
O -4.670303205900698e-05 -1.0711535590324952 0.002909822364422147
C -2.2951487070403265 -0.3600424023556125 0.3931277814137247
H 3.1424526977260085 0.1833166873561916 0.03151333373119468
H 2.583580240559898 -1.4072434914223637 -0.517397462717287
H 2.0785778637312053 0.05791532562440218 -1.388081900600383
H -0.014672633953320857 1.3278017884612274 1.531965142843804
H 1.2744140455696127 1.9385234389791957 0.4775194353577443
H -1.2748152733000626 1.9373020653180728 -0.47549759696790656
H 0.014927728319369912 1.329375511818965 -1.5305416062521944
H -2.085129659771502 0.05845485290113546 1.3833605501923347
H -2.5846272292718737 -1.4087382569783544 0.5127930880983925
H -3.143225356008915 0.1802476840278681 -0.040891134601702614
*
