! wb97x-v def2-tzvp def2/J RIJCOSX DEFGRID2 scfconv7 GCP(DFT/TZ) printgap
%output
    printlevel normal
end
%cpcm
    smd true
    smdsolvent "water"
end
* xyz 0 1
C 0.7329166178145101 1.0980761667235085e-06 0.005818479729503733
N -0.7386110033344768 2.413057859850053e-06 -0.09278502741841514
H 1.1355553810264811 0.8813979450238967 -0.5017422082367138
H 1.1355469736768573 -0.8814546979174113 -0.5016466729656617
H 1.1177812733276882 5.572448787756891e-05 1.0360403764750734
H -1.0872121491971192 -0.8039643397510327 0.4208857842812839
H -1.0872052391894813 0.8040242914471191 0.42080459750010274
*
