! r2scan-3c def2/J RI DEFGRID2 scfconv6 printgap
%output
    printlevel normal
end
* xyz 0 1
C -2.4017317431 -0.0914149707 0.4397970659
C -1.2518453242 -0.6660875123 -0.3849018197
C 0.0125553767 0.1278851135 -0.1781048904
O 0.0869684631 1.3381668406 -0.2182309815
O 1.0508324442 -0.66862945 0.0470452123
C 2.3455940955 -0.0915161134 0.2472402491
H -2.5162039219 0.9681505125 0.2253791512
H -3.3266835873 -0.6047520333 0.1974809903
H -2.2044301424 -0.2073971158 1.5022704858
H -1.5000113183 -0.6020639118 -1.4464392778
H -1.0553672156 -1.7063113758 -0.1294718341
H 2.6627480528 -0.3242290338 1.2622840129
H 2.2951713767 0.9881991362 0.1026021117
H 3.0205166381 -0.5462951507 -0.4747752534
*
