! pbe def2-sv(p) def2/J RI DEFGRID1 loosescf d4 GCP(DFT/SV(P)) printgap
%output
    printlevel normal
end
* xyz 0 1
C -2.4845652755 0.430754683 -1.3677309552
C -2.0523662931 0.4505280635 0.106254222
H -2.9591743071 0.4777348745 0.7188337557
C -1.1550161515 1.6630271435 0.4272726519
C 0.26985651 1.2529964296 0.7906111845
C 0.7993463212 0.2852697878 -0.266536662
H 0.5866126356 0.7164116299 -1.2497871876
C 0.0338448645 -1.0395590784 -0.1146599399
C -1.3733130478 -0.86876935 0.3876215602
O -1.9579173415 -1.7750020614 0.9540361361
C 2.2856884875 0.0180492789 -0.1963701369
C 2.9929031903 0.1128887759 0.9181558316
C 2.9053609653 -0.3985476463 -1.4964559747
H -1.6209557816 0.4065415601 -2.0256535117
H -3.1005389027 -0.4438168045 -1.5673143856
H -3.0684757419 1.3208043584 -1.5862817264
H -1.124073901 2.3238466027 -0.4401359505
H -1.5880155799 2.2258248409 1.2546048735
H 0.9036003207 2.138568909 0.8458313297
H 0.2736571256 0.7661235788 1.7680884265
H -0.029093253 -1.5703498866 -1.067784389
H 0.5536024915 -1.703485859 0.5811212758
H 4.0478682978 -0.103191986 0.9329513957
H 2.5611613122 0.4072520059 1.8580690227
H 2.3927779628 -1.271560224 -1.8968655694
H 2.8182494677 0.4039610235 -2.2275818896
H 3.9566164129 -0.6394231177 -1.3679009204
*
