! wb97x-v def2-tzvp def2/J RIJCOSX DEFGRID2 scfconv7 GCP(DFT/TZ) printgap
%output
    printlevel normal
end
* xyz 0 1
C 1.8294169165756924 -1.4673292675622853 -0.000874383379750165
C 0.5352204700398535 -0.7033480236297773 0.0016380140347057282
C -0.6727965795109145 -1.3995352542390096 0.001831479846933638
C -1.877239995465865 -0.7089477378805216 0.0005822382558601898
C -1.8317920377315227 0.6770695468078998 -6.463849680355489e-05
N -0.6883778458138325 1.3750350126570963 6.23068334155957e-06
C 0.47890522352335246 0.7029863199822372 0.0005206711194044704
C 1.7290295510861458 1.5339519375613138 -0.0005504046078783026
H 2.7031494423945595 -0.8171780815539357 0.038701823061207466
H 1.8732278774706643 -2.1476072229856613 0.8563437018695245
H 1.907656213522164 -2.0838158295115385 -0.9031811360899974
H -0.6623159624392202 -2.4864972674508223 0.0029486319393187375
H -2.8279184569630953 -1.2313392583140894 0.0005799379343154756
H -2.7512394732475403 1.2590567014696896 -0.0008751238141290679
H 1.4743353529020813 2.5945961094990637 -0.0007301523265312933
H 2.3465501911286286 1.3242526429110197 0.8796475552465903
H 2.3451147412560327 1.3232593778186479 -0.8815845111165914
*
