! pbe def2-sv(p) def2/J RI DEFGRID1 loosescf d4 GCP(DFT/SV(P)) printgap
%output
    printlevel normal
end
* xyz 0 1
C -2.4954892003 -0.4354726252 -0.2882142831
C -1.0730817224 -0.1953725501 0.2318480023
H -1.0399521076 -0.4013758362 1.3145827216
C -0.6234949995 1.2675072703 0.0235919701
H -1.2596268957 1.743319114 -0.7337379147
C 0.8337933249 1.3034578281 -0.5034178794
H 1.2429541163 2.3086807788 -0.3502552575
C 1.6892587517 0.3050936348 0.2954712551
H 2.6996418663 0.2633531404 -0.1258200697
C 1.087421214 -1.1184638413 0.1552684137
H 1.0117617816 -1.5580727104 1.1723042347
O -0.2018034277 -1.0921032381 -0.4292284523
O 1.9053310479 -1.868116599 -0.6632922537
O 1.8245383241 0.6923384764 1.6370731482
O 0.8889481883 1.079155373 -1.8854231656
O -0.7409398529 1.9159676787 1.2708348392
O -3.0092941898 -1.6933891755 0.0577338593
H -2.4813441422 -0.4117125983 -1.3793450107
H -3.1385014027 0.3701183274 0.0869182136
H 1.4991640774 -2.7332369861 -0.8329215055
H 0.9773863093 1.054617046 1.9548032203
H 0.6518990081 0.1561563896 -2.0659061028
H -0.7206339823 2.876684866 1.153413611
H -3.0964566069 -1.7592258305 1.0195716107
*
