! wb97x-v def2-tzvp def2/J RIJCOSX DEFGRID2 scfconv7 GCP(DFT/TZ) printgap
%output
    printlevel normal
end
%cpcm
    smd true
    smdsolvent "water"
end
* xyz 0 1
C -2.7385499641968725 0.7256224352056092 0.7647443674588392
C -1.7691457436714515 -0.1193638795648665 -0.00482942969966558
O -2.1412352344459293 -0.8592510407088385 -0.9128670651395656
C -0.3130704010577763 -0.0008900705128593704 0.3750353792770676
C 0.309455577330891 1.1484126767988796 -0.4540696295461143
C 1.7816986167767186 1.3378926827366135 -0.08574939692869596
C 2.572617145170226 0.041055426744806035 -0.2642203470800048
C 1.9445104977308965 -1.1023057877220823 0.5347864476966945
C 0.47479206741109475 -1.2948485905728069 0.15797482956109032
H -2.3374312744699175 1.7310020940556603 0.927211069376292
H -3.7092665572696855 0.7713778753006769 0.2682478717134466
H -2.8607955352604373 0.27360438186537017 1.757697398572593
H -0.2625868249139808 0.29036971505442916 1.433284798259262
H 0.2229928181063685 0.8933034204997884 -1.5189825205939285
H -0.24789471309408756 2.0776626349840233 -0.2917556249851211
H 2.212519715987663 2.1360469999529363 -0.7014248898619148
H 1.850089231002692 1.6652364196669704 0.9605680970458378
H 2.5861042016802984 -0.22896560871686267 -1.3292948425262743
H 3.6143671318503205 0.19024226301833644 0.04243362949428594
H 2.497025475848359 -2.03360017080237 0.36526711866273764
H 2.0176464932351057 -0.8778135072355854 1.608014137072813
H 0.40231658895422645 -1.5843002786007643 -0.897726104174067
H 0.02868968127363697 -2.104364871247802 0.7475621481837242
*
