  22
        -46.97979665
 C         -3.5270182955        0.0006799128       -0.0012627692
 C         -2.8420613491        0.9143258547        0.7816160013
 C         -1.4580341452        0.9060124164        0.7747267718
 C         -0.7397920754        0.0008024890       -0.0007261130
 C         -1.4576840095       -0.9042895955       -0.7766668217
 C         -2.8416925632       -0.9127354517       -0.7840836575
 Cl        -0.5806938146       -2.0355240130       -1.7563811369
 C          0.7398043491       -0.0001674962        0.0003448227
 C          1.4594661831        0.9042313106       -0.7746915550
 C          2.8435030435        0.9111232002       -0.7806702195
 C          3.5270219741       -0.0031319679        0.0027512696
 C          2.8402289804       -0.9159126244        0.7850419114
 C          1.4562622500       -0.9060540251        0.7766932695
 Cl         0.5774800640       -2.0365266575        1.7557221459
 Cl         0.5847195591        2.0365841607       -1.7551942134
 Cl        -0.5815076336        2.0374368727        1.7546659197
 H         -4.6045014391        0.0004178823       -0.0012294183
 H         -3.3693206364        1.6270699935        1.3934601628
 H         -3.3686351312       -1.6255847893       -1.3960603361
 H          3.3718945060        1.6233860835       -1.3920968089
 H          4.6045449438       -0.0043331533        0.0036379363
 H          3.3660302070       -1.6292973910        1.3974319088
