! pbe def2-sv(p) def2/J RI DEFGRID1 loosescf d4 GCP(DFT/SV(P)) printgap
%output
    printlevel normal
end
* xyz 0 1
C -2.4827851559 -0.8094158436 -0.2525857027
C -1.1577239243 -0.5961254 0.4959059367
H -1.2558951667 -0.9920919712 1.5203179176
C -0.7583264747 0.8870960223 0.6388325355
H -1.6304494622 1.5074998243 0.3875968162
C 0.3745897389 1.2516789964 -0.342652199
H 0.7215196556 2.2665524074 -0.0986587307
C 1.5919076939 0.3193869627 -0.1704712794
H 2.0587149013 0.1671817986 -1.1559388647
C 1.1288860084 -1.0669176999 0.3157754463
H 1.098056651 -1.0633116714 1.4254048747
O -0.1600473959 -1.3487880606 -0.1753441427
O 2.009937673 -2.0192136154 -0.1643023693
O 2.4883856836 0.932844369 0.7165513688
O -0.1529510641 1.200492103 -1.6421536309
O -0.371380651 1.0814859487 1.9768205576
O -2.7391602693 0.1222676895 -1.2687304487
H -3.3137071586 -0.7187765582 0.4496993506
H -2.4615729881 -1.8297854076 -0.6579300003
H 1.6135232211 -2.9001230188 -0.0798617958
H 3.2675073785 0.3703156632 0.8306136009
H 0.4694085834 1.5953540618 -2.2695666274
H -0.1607649152 2.0136608153 2.131028809
H -1.9344044104 0.2445889613 -1.799091257
*
