! pbe def2-sv(p) def2/J RI DEFGRID1 loosescf d4 GCP(DFT/SV(P)) printgap
%output
    printlevel normal
end
* xyz 0 1
C -2.1611462752 -1.2049297927 -0.0393487078
C -1.2012420396 -0.3457668477 0.7979464931
H -1.7114600173 -0.1256214924 1.742047825
C -0.8763736638 0.9902768132 0.0855441095
H -1.0956597313 0.8911699968 -0.9844477563
C 0.6170729063 1.2875711263 0.2539553367
H 0.8712848832 1.3492720062 1.3192307307
C 1.4108568473 0.1271117013 -0.3671987242
H 1.166302358 0.0555292801 -1.4404609411
C 1.0206742666 -1.2060795675 0.3141846128
H 1.867412575 -1.5327592639 0.9296113872
O -0.0361013755 -1.0431328047 1.2304589113
O 0.792548354 -2.2257213014 -0.5955016526
O 2.7939744761 0.316755546 -0.2097167649
O 1.0037478234 2.5194656618 -0.2998287113
O -1.6995518186 2.0369804227 0.5260698191
O -1.6765480867 -1.345982944 -1.3635134832
H -3.1307388784 -0.6969198007 -0.0465070551
H -2.2567444089 -2.1838207578 0.4429774322
H -0.0262003688 -2.0224355612 -1.1013361883
H 2.9932490874 1.2521620621 -0.3836028048
H 0.5863225878 2.6384392977 -1.1656458071
H -1.4536988508 2.3002137972 1.4246762641
H -2.327795085 -1.8339600727 -1.8878581663
*
