! r2scan-3c def2/J RI DEFGRID2 scfconv6 printgap
%output
    printlevel normal
end
%cpcm
    smd true
    smdsolvent "water"
end
* xyz 0 1
C -3.4022510435 0.528888439 0.0324120216
C -1.922135896 0.4839975087 0.3957228691
H -1.8005745313 0.7196519444 1.4582754527
C -1.1051803724 1.4993928613 -0.4201114303
C 0.3734786603 1.4403740089 -0.0576074946
C 0.9341176512 0.0379357425 -0.3077081699
H 0.7946660109 -0.2036737047 -1.3668847059
C 0.1322707284 -0.988440829 0.5144717814
C -1.3288676408 -0.8878740214 0.1700074936
O -1.9613100569 -1.8230782586 -0.2801342908
C 2.4124679242 -0.0376577566 0.0105097023
C 2.8872361045 0.1442761959 1.2325588474
C 3.3042102628 -0.3180013337 -1.1590539398
H -3.8091176632 1.51866404 0.2192084475
H -3.5384864489 0.2830484939 -1.0183741147
H -3.9563715698 -0.199328556 0.6197909009
H -1.2346458646 1.2822895313 -1.4829964361
H -1.4976359635 2.4997689085 -0.2328921218
H 0.9277207837 2.162488679 -0.6594388265
H 0.5093019043 1.7057196877 0.9916399758
H 0.4855733226 -2.0005961327 0.3107187535
H 0.2597119509 -0.7784729502 1.5766018483
H 3.942206303 0.0978369411 1.4400759655
H 2.2520222337 0.3463193185 2.0775571257
H 3.1716457015 0.4473306279 -1.9225791932
H 4.3483556344 -0.3396844345 -0.8605909931
H 3.0453094827 -1.2783038519 -1.6034931854
*
