! pbe def2-sv(p) def2/J RI DEFGRID1 loosescf d4 GCP(DFT/SV(P)) printgap
%output
    printlevel normal
end
* xyz 0 1
C -2.0808976824 -1.1710980494 -0.2651718228
C -1.2688124047 -0.3487571918 0.7456798133
H -1.899824189 -0.2279567608 1.6327554751
C -0.9277594257 1.0641946905 0.2018604347
H -1.2340321854 1.1475055783 -0.8458076445
C 0.5875712885 1.2863099265 0.2594624653
H 0.9148078407 1.3360091743 1.3118907988
C 1.2770521767 0.087899493 -0.4027794461
H 0.8673407964 -0.0287153136 -1.4168923649
C 0.9820461542 -1.1903923164 0.4125255676
H 1.8154719634 -1.3809658343 1.1004603728
O -0.1322651088 -1.0339317478 1.2596094509
O 0.8916247727 -2.3160036378 -0.3962219529
O 2.6553936149 0.3683820647 -0.4587134337
O 0.8986034004 2.484274544 -0.4009217136
O -1.6546935176 2.0592003951 0.870775261
O -1.3966298757 -1.2693342771 -1.5018651374
H -3.0396672126 -0.6616440969 -0.3975822606
H -2.2480939637 -2.1694173875 0.1569264189
H 0.1410096908 -2.1892706952 -1.014214771
H 3.1120676072 -0.3325394789 -0.9441653554
H 1.8586102747 2.507298697 -0.53976894
H -1.2701795591 2.2204788194 1.7445024198
H -2.0003841992 -1.6257933726 -2.1695581445
*
