! r2scan-3c def2/J RI DEFGRID2 scfconv6 printgap
%output
    printlevel normal
end
%cpcm
    smd true
    smdsolvent "water"
end
* xyz 0 1
C -4.2156156365 -0.2983528896 -0.1354358288
C -2.7327936422 -0.1162563887 -0.0343264408
C -2.0028072294 -0.7479071883 0.965504539
C -0.635754804 -0.5663555685 1.0706455364
C 0.030813949 0.2532946325 0.1680411659
C -0.6926605148 0.8995634811 -0.8268497085
C -2.0586592079 0.7103327384 -0.9262053817
C 1.4980805629 0.5110206525 0.3203001559
O 1.8957143938 1.485021323 0.9688781073
N 2.3327478345 -0.3532314499 -0.2692779712
C 3.7649676079 -0.1787679618 -0.1637512378
C 1.9124081387 -1.4923915872 -1.0510009042
H -4.7221173881 0.5112660043 0.3893991095
H -4.5365662131 -0.2776722637 -1.1736852075
H -4.5220795684 -1.2383080703 0.3152909202
H -2.5089727268 -1.3892370814 1.6716824459
H -0.0798485921 -1.0593448807 1.8546187384
H -0.1799983288 1.5493518877 -1.5209224285
H -2.6097326766 1.213806953 -1.7066250615
H 4.2003456505 -0.0585487039 -1.1562698024
H 4.2114628499 -1.0464033693 0.3232122157
H 3.9585944029 0.7123477929 0.4300241213
H 0.8283915852 -1.5490997268 -1.084705698
H 2.3078724413 -2.4072690269 -0.6065419878
H 2.2996468556 -1.40073298 -2.0673471103
*
