! pbe def2-sv(p) def2/J RI DEFGRID1 loosescf d4 GCP(DFT/SV(P)) printgap
%output
    printlevel normal
end
* xyz 0 1
C -2.5392785887 0.6223928443 -1.1550466286
C -2.0306630741 0.4171511269 0.278117751
H -2.9079470343 0.4082312951 0.9354393663
C -1.0685384673 1.5139269805 0.7279072184
C 0.2487408558 1.5028026084 -0.0521278884
C 0.7756059009 0.0770496946 -0.3153184489
H 0.5236703173 -0.2103258708 -1.3407504231
C 0.0928177409 -0.9424856148 0.6112698498
C -1.3902994146 -0.9487743365 0.3841767879
O -2.0348462254 -1.9757090707 0.2756496413
C 2.2810760816 -0.00988865 -0.1656807363
C 2.891572579 0.2456149338 0.9806642624
C 3.0286696692 -0.4095765876 -1.3994372555
H -3.2111198538 -0.1888359807 -1.426192758
H -3.0771207277 1.5638495517 -1.2245053834
H -1.7148762058 0.6366545172 -1.8618596026
H -1.5491537265 2.4857188275 0.6084052504
H -0.8643836569 1.3805033075 1.791712623
H 0.1149438881 2.0132982227 -1.0060480842
H 0.9907106702 2.0680076262 0.5126547972
H 0.4901095188 -1.9453885849 0.445719057
H 0.2765850662 -0.6741325758 1.6529321875
H 3.9612888383 0.1808668376 1.0787624103
H 2.3542966064 0.5324941438 1.8685646601
H 2.8432678751 0.308279805 -2.1973464419
H 4.097544404 -0.4583573842 -1.2122318479
H 2.6872575095 -1.38506518 -1.7439854349
*
