! pbe def2-sv(p) def2/J RI DEFGRID1 loosescf d4 GCP(DFT/SV(P)) printgap
%output
    printlevel normal
end
* xyz 0 1
C -2.2444562579 -1.0088141951 -0.3611277049
C -1.1566635479 -0.221489556 0.3846189457
H -1.5952520382 0.2177771703 1.2897879417
C -0.5654662474 0.9092786421 -0.4697977457
H -0.3848777837 0.5578034572 -1.4942364447
C 0.7794810523 1.3344730294 0.14071802
H 0.6017519 1.5946795226 1.1978582348
C 1.7766081624 0.1708418023 0.0652807689
H 2.3076945987 0.239642308 -0.8892839273
C 1.0327986078 -1.1856982642 0.0983847616
H 1.6610164588 -1.8981510362 0.6495892652
O -0.1528895659 -1.126735003 0.8553236908
O 0.8065545738 -1.6048056005 -1.2108609671
O 2.765531162 0.2322483961 1.0554322389
O 1.3220264074 2.4365373879 -0.535661879
O -1.3886276519 2.0510837797 -0.4632331817
O -2.8849721857 -1.9359031175 0.4797429522
H -1.7936516141 -1.5141620525 -1.22543187
H -3.0261255288 -0.3316719086 -0.7090690692
H 0.6946328912 -2.5668037727 -1.2510782126
H 2.3559339453 0.2952192187 1.9313173498
H 0.6273825093 3.1102197432 -0.6148898691
H -2.1647736917 1.913233891 -1.0216016716
H -2.2057971434 -2.4332087428 0.9592025606
*
