! wb97x-v def2-tzvp def2/J RIJCOSX DEFGRID2 scfconv7 GCP(DFT/TZ) printgap
%output
    printlevel normal
end
* xyz 0 1
C -1.0110984849396578 -1.8062783320405886 -6.497099544530795e-05
C 0.36654275603622 -1.6101312112136072 8.298079750683929e-05
C 0.8733733433752339 -0.30630463376475 0.00019899123457315607
C 0.01302808279758813 0.798771619722678 -4.477503212244617e-05
C -1.3584634984854576 0.5846698114185153 -9.452324353441672e-05
C -1.8738059967863485 -0.7178354284988332 -0.00010427720012192717
O -2.266359816631972 1.612606506795112 -6.82542120005624e-05
C 2.327454114675732 -0.12342868475639075 0.000992834479935791
O 2.8937487341592 0.9639721919128817 -0.0002045008809498116
H -1.4203644019286323 -2.8110272815404254 -0.0001021799806959959
H 1.0493250118982609 -2.4541972338062314 0.0001117323239677632
H 0.4169732899064556 1.8071224642638088 5.1509063138140025e-05
H -2.94978706345483 -0.8597625808316782 -0.00014392498934421362
H -1.792564554468544 2.4566006854634868 -3.253391718077934e-05
H 2.9162338477109406 -1.0613268440202173 -0.0009067586432213083
*
