! wb97x-v def2-tzvp def2/J RIJCOSX DEFGRID2 scfconv7 GCP(DFT/TZ) printgap
%output
    printlevel normal
end
* xyz 0 1
C -2.6440034226371933 -0.47217695828077955 1.0464226311040328
C -1.7796263612352645 0.1215837674137386 -0.03101928493620656
O -2.25993526473484 0.41707407716604 -1.122773401168893
C -0.31176813328244257 0.30268383560941287 0.2707237508664516
C 0.4439370047829778 1.0301127362673705 -0.8391855392246257
C 1.9236774808103771 1.187229850485129 -0.48517213371756424
C 2.5687020646347025 -0.17037162988689647 -0.2036794044222042
C 1.8179762058245872 -0.9103974483030361 0.90332360004486
C 0.33394411617582465 -1.0711516937719092 0.5687362727682915
H -2.250090594121217 -0.280607873135484 2.0467810788927236
H -3.66463084699637 -0.09565152785637021 0.9546406824989513
H -2.672758495601433 -1.5589839861346593 0.9006302113543126
H -0.25977553824175315 0.8905069312641645 1.2009916339102271
H 0.3521523584279043 0.45426074604294664 -1.7692624518272255
H -0.013838433656016887 2.008672535788689 -1.0222529298316356
H 2.448701641150093 1.6973954378942424 -1.3008888860813874
H 2.0192958549382545 1.8250708372401536 0.4046723728167909
H 2.5510188394053035 -0.7759464502594734 -1.1207629068759122
H 3.6212043061535177 -0.04220024158078967 0.07462717416090311
H 2.262310424813829 -1.8979202207020387 1.0737257751951215
H 1.9114545461273773 -0.3477150043699673 1.8423346173743442
H 0.22014618542765865 -1.7096598215784202 -0.3182578427739906
H -0.1854693403372496 -1.564813448442469 1.3963493099328252
*
