! wb97x-v def2-tzvp def2/J RIJCOSX DEFGRID2 scfconv7 GCP(DFT/TZ) printgap
%output
    printlevel normal
end
%cpcm
    smd true
    smdsolvent "water"
end
* xyz 0 1
C 0.40747426001306236 1.7251992913713647 -0.1449946376345077
C 0.4304841866029302 0.29288718489237586 0.3293901688763793
H 0.31185539957097425 0.21772331307856058 1.4124008056848412
C -0.5285018557032422 -0.6389710004532276 -0.3837970324082792
Cl -2.2550083445300433 -0.15496819795415126 0.0068560016200290026
Cl 2.1086301660137283 -0.43084288932385795 -0.009093720096199992
H 0.5574473157791132 1.782116540725925 -1.2272147312009494
H -0.5644027068650704 2.167006050655702 0.09756983827465462
H 1.179138357450563 2.3118538882154143 0.358071726591754
H -0.42223260927525147 -0.5751002974323716 -1.4683894563388755
H -0.42166548699549233 -1.6696049736196443 -0.04572668919844405
*
