! wb97x-v def2-tzvp def2/J RIJCOSX DEFGRID2 scfconv7 GCP(DFT/TZ) printgap
%output
    printlevel normal
end
* xyz 0 1
C -2.8202748055606044 1.0359139256263334 0.00011565639150331865
O -2.2260102749825506 -0.2711069261244931 -9.46196430959965e-05
C -0.8575893938929068 -0.3434422957767875 -1.662553030661433e-05
C -0.31753466117483753 -1.63469837342862 8.266416011058429e-07
C 1.0619381876538034 -1.7898976465217173 6.684337877235899e-05
C 1.9162212899311375 -0.6894508985170907 0.00011379376882875131
C 1.3575018211545535 0.5856393938213442 9.308760860644918e-05
C -0.026431559738435053 0.7774634192002638 3.1782066819576444e-05
O 2.223533632304043 1.656311316046744 0.0001315965914900771
H -3.8980106511620836 0.869278569507965 4.9796824742104684e-05
H -2.5363790980154253 1.5971013635713547 -0.8973109060661294
H -2.5364280867253988 1.5967698952916118 0.8977656857236853
H -0.9831524930159152 -2.490894231007268 -2.889070341702188e-05
H 1.483987000135334 -2.7900605942686862 8.863128853628041e-05
H 2.9940805196448803 -0.8080241845004411 0.00016762707784613796
H -0.42239030629826735 1.7864421150037424 1.5248707424743209e-05
H 1.7129981755506085 2.4779890023497066 0.00014519887102874436
*
