! wb97x-v def2-tzvp def2/J RIJCOSX DEFGRID2 scfconv7 GCP(DFT/TZ) printgap
%output
    printlevel normal
end
* xyz 0 1
C -1.9191152617382716 -2.1953516291892066 0.0015173960813952834
C -0.9207923096542073 -1.0715992047110963 -0.0017286471734090975
C 0.4500518492051982 -1.327016798824398 -0.0027783535457223947
C 1.384784395286585 -0.2825414100417777 -0.0014867743105204268
C 0.9308691003697331 1.0339418449662605 -5.7811924383239434e-05
C -0.44088540522316705 1.292314526690624 0.0005469496401493581
C -1.3668956799551557 0.25549116365614566 -0.0004302604209607435
O -0.828493599894589 2.6176993891003404 0.0012144831468020136
C 2.8567865656998435 -0.5869527818365142 0.001584544275580966
H -2.538517331423936 -2.1663550781316907 0.904748449563934
H -2.5982260085853968 -2.1207131933000913 -0.8545438562146171
H -1.4206315614971905 -3.166754847734346 -0.039215113193487874
H 0.8013381336309275 -2.3556731760824583 -0.004829797710268086
H 1.6308182930327142 1.8639756948879824 -0.0001503766676724932
H -2.4311568162776065 0.47909986691455864 -0.0006910808295427486
H -1.7951065002697517 2.6604582568821433 0.0017255384420850931
H 3.1287151997910576 -1.2133312749077927 -0.8546567604075718
H 3.4526594098275885 0.327946050070852 -0.0388394243357239
H 3.139331438028315 -1.1394650236976909 0.9044266022436865
*
