! pbe def2-sv(p) def2/J RI DEFGRID1 loosescf d4 GCP(DFT/SV(P)) printgap
%output
    printlevel normal
end
* xyz 0 1
C 0.7437245605 -1.167351041 0.3230365737
C -0.7869787964 -1.2222035811 0.090492786
N -1.3016112334 0.0172367721 -0.4700541647
C -0.7734630363 1.1546296663 0.2609945398
C 0.7712996322 1.2283227873 0.1823892268
N 1.262391806 -0.0144777363 -0.3963755772
H 1.2244840732 -2.0642778669 -0.0690858802
H 0.9609470049 -1.1054691233 1.4043796521
H -1.0447653861 -2.0309172259 -0.5930302756
H -1.3026979826 -1.3972019651 1.0395300865
H -0.9848755323 0.0895505251 -1.4328805895
H -1.2214059053 2.0626456551 -0.1439843802
H -1.0952925528 1.0493594835 1.3008686426
H 1.087206932 2.0429751654 -0.4729591995
H 1.1869686244 1.4141127222 1.18856476
H 2.2756952626 -0.0204423575 -0.392413923
*
