! pbe def2-sv(p) def2/J RI DEFGRID1 loosescf d4 GCP(DFT/SV(P)) printgap
%output
    printlevel normal
end
* xyz 0 1
C -2.266430337 -1.1415744246 -0.0430557285
C -0.8872580199 -0.5663391431 0.2880189914
H -0.7624232124 -0.5243234349 1.3790884754
C -0.7102026916 0.8530671545 -0.2723805757
H -1.0356294778 0.8434926701 -1.3274528196
C 0.7794807175 1.2651943028 -0.2414215907
H 0.8349472025 2.2187133916 0.3002412637
C 1.6462895952 0.2505228486 0.5201766767
H 2.6951699435 0.5041347761 0.312465376
C 1.4186952676 -1.1662765796 -0.0509159994
H 1.8025769535 -1.9191595583 0.6562158837
O 0.0523793575 -1.4537579664 -0.2940323085
O 2.1340642899 -1.3577319581 -1.220687923
O 1.363133707 0.343248786 1.8915695121
O 1.3259563154 1.3697122864 -1.5348165338
O -1.4412395705 1.8088480572 0.4515556864
O -3.2527797532 -0.3275398542 0.5481142981
H -2.3061968428 -2.1661472999 0.3423143473
H -2.3775655965 -1.1720072672 -1.1341269785
H 1.9063517535 -0.6527988181 -1.8534482736
H 2.0734690752 -0.0677373696 2.4050911467
H 0.9682718316 2.1512027152 -1.9796356425
H -2.322423223 1.4415419079 0.6391964921
H -4.1264157833 -0.7103003262 0.3844632668
*
