! pbe def2-sv(p) def2/J RI DEFGRID1 loosescf d4 GCP(DFT/SV(P)) printgap
%output
    printlevel normal
end
* xyz 0 1
C -2.0992411953 -1.2091851353 -0.1788180472
C -1.2449032564 -0.3485274727 0.7736355717
H -1.8302048342 -0.1665992756 1.6804705788
C -0.91970153 1.0194046565 0.1454840743
H -1.2198889426 1.0007817174 -0.9164104022
C 0.5865346385 1.2930066848 0.214932009
H 0.8851472018 1.4239041711 1.2610278479
C 1.346244299 0.103172811 -0.3820088963
H 1.0330154388 -0.0386738202 -1.4295360495
C 1.0060025733 -1.175389673 0.4016304951
H 1.8497783943 -1.3919429168 1.070340201
O -0.0896126694 -1.024430837 1.2658938604
O 0.8161469749 -2.2173067294 -0.5111093863
O 2.736158361 0.2932486386 -0.3193148818
O 0.9309878996 2.4922745812 -0.4337224789
O -1.6575274293 2.001773107 0.8316441926
O -1.6025691536 -1.2814127696 -1.4920236766
H -3.0841454108 -0.7446557036 -0.2564749621
H -2.2078853845 -2.2089388007 0.2569272562
H 0.849300263 -3.0734126088 -0.056980553
H 2.9301367527 1.2217902676 -0.5295948643
H 0.6570395781 2.4502924928 -1.363356919
H -1.3152529115 2.8771662536 0.5918232526
H -0.750943528 -1.7589459474 -1.4703180684
*
