! pbe def2-sv(p) def2/J RI DEFGRID1 loosescf d4 GCP(DFT/SV(P)) printgap
%output
    printlevel normal
end
* xyz 0 1
C -2.2134756044 -0.6245848598 -0.7149767367
C -1.384689844 -0.4729673702 0.5786106649
H -2.0583280912 -0.7038224421 1.4159027959
C -0.8680320078 0.9541299292 0.8103806134
H -1.6797311952 1.6458155111 0.5443464372
C 0.3455245826 1.3156187858 -0.0717750308
H 1.0155514279 1.9599755541 0.5162907234
C 1.1618508972 0.0744623604 -0.4570037545
H 0.789585609 -0.3421669697 -1.4056317258
C 0.9703608794 -1.0103345613 0.6109287539
H 1.2530920092 -0.6065651384 1.6047963124
O -0.3598470354 -1.46143779 0.642223859
O 1.7793715364 -2.0854916321 0.2759383696
O 2.5100336818 0.4554503642 -0.572847514
O -0.1341578697 2.0154663536 -1.196827393
O -0.5611691845 1.0607634148 2.1817499582
O -1.5565437876 -0.286297843 -1.9067614394
H -3.1308631151 -0.0333563014 -0.5970281948
H -2.4791165033 -1.6792350503 -0.8140927961
H 1.4672672333 -2.8753646007 0.7422254733
H 3.0484736218 -0.3434432987 -0.6751152085
H 0.6170224706 2.2992434219 -1.7382216749
H -0.4697775358 1.9920968176 2.4311513272
H -1.3085709193 0.6573376468 -1.8839858002
*
