! pbe def2-sv(p) def2/J RI DEFGRID1 loosescf d4 GCP(DFT/SV(P)) printgap
%output
    printlevel normal
end
* xyz 0 1
C -2.2525545491 -0.9818654666 -0.3690217546
C -1.157349112 -0.2204757531 0.3868241255
H -1.6060604593 0.2337622211 1.2786647716
C -0.5578919843 0.8947051757 -0.4734622221
H -0.377845705 0.5194733768 -1.494354885
C 0.7830128473 1.3175505058 0.1518683797
H 0.6113211396 1.5460981385 1.2110443736
C 1.7775458961 0.1560171044 0.0284143072
H 2.2406787305 0.1758193403 -0.9647692617
C 1.0325599667 -1.2003142941 0.135745263
H 1.6596416333 -1.8873407641 0.7211102682
O -0.1587571619 -1.1193526752 0.8785565433
O 0.8265754843 -1.6760521917 -1.1582722904
O 2.8431153114 0.2442765401 0.9336807404
O 1.244633391 2.5191773411 -0.4084856315
O -1.463281829 1.9662384038 -0.5148690415
O -2.9626071382 -1.8614968314 0.4663817752
H -1.8032390484 -1.523705207 -1.2115406885
H -2.9751708899 -0.2592092565 -0.7522735199
H 0.630437946 -2.6251024634 -1.1482182107
H 2.5095087659 0.3226012683 1.8394073071
H 1.617789341 2.3571402701 -1.2873393015
H -0.9511785514 2.7867199315 -0.6206711626
H -2.3242194898 -2.3920002519 0.9658620618
*
