! r2scan-3c def2/J RI DEFGRID2 scfconv6 printgap
%output
    printlevel normal
end
%cpcm
    smd true
    smdsolvent "water"
end
* xyz 0 1
C -2.4343930173 -1.0920690852 -0.310204334
C -1.0784468838 -0.5953749596 0.2111229039
H -1.1185174515 -0.5543692231 1.3116081205
C -0.7377381666 0.8040485867 -0.3201187582
H -0.712643032 0.756613442 -1.4225486767
C 0.6523986042 1.2301879631 0.1861989794
H 0.6260081489 1.3243381925 1.278389772
C 1.6829615525 0.1638381817 -0.1905069855
H 1.7752877469 0.1115303216 -1.2877796963
C 1.1937201724 -1.2165942146 0.2909761806
H 1.1675095433 -1.210786533 1.4015822779
O -0.0914956485 -1.5182543106 -0.2020940744
O 2.0779814333 -2.1628067445 -0.1863720137
O 2.9133656936 0.4891875055 0.3968262564
O 0.9703438465 2.5138619388 -0.28695892
O -1.7240515399 1.7124408372 0.0971667686
O -3.5133562002 -0.4805078357 0.3409955936
H -2.5128409399 -2.1629581322 -0.1116799597
H -2.4828384734 -0.9318224124 -1.3952620956
H 1.7036974583 -3.0502437575 -0.0729253062
H 3.5482737033 -0.2189296116 0.2095514257
H 1.3146956471 2.4636560669 -1.1903665203
H -1.3583803099 2.6100889246 0.0365456346
H -3.3971340183 0.4828033882 0.2893380372
*
