! pbe def2-sv(p) def2/J RI DEFGRID1 loosescf d4 GCP(DFT/SV(P)) printgap
%output
    printlevel normal
end
* xyz 0 1
C 2.4742366495 -0.0222983813 -0.2326898447
C 1.0123172541 0.093387251 0.0573112733
C 0.306522143 1.2068708248 -0.0885206771
C -1.1491768545 1.2495825629 0.2634818443
C -1.9164653954 -0.0375399588 -0.1107688167
C -1.0018849459 -1.2412020739 -0.3559064514
C 0.2754328236 -1.1458019704 0.4812748249
H 2.6432989601 -0.7363398046 -1.0383858717
H 3.0029170259 -0.3843454118 0.6483783646
H 2.8907985895 0.9388690094 -0.5231923732
H 0.7664684869 2.1282813106 -0.4162341151
H -1.2237654938 1.3976475925 1.3460507719
H -1.6210474183 2.1125633969 -0.2081129953
H -2.6153819471 -0.2713503859 0.6940108644
H -2.5078322417 0.1420180676 -1.0097204066
H -1.5379755661 -2.1638343435 -0.1286826743
H -0.7127057909 -1.2738475778 -1.4086385722
H 0.0107274745 -1.0843376689 1.5404440812
H 0.8927994467 -2.0327396346 0.3350762449
*
