! pbe def2-sv(p) def2/J RI DEFGRID1 loosescf d4 GCP(DFT/SV(P)) printgap
%output
    printlevel normal
end
* xyz 0 1
C 0.7276248318 -1.1920390323 -0.2319773722
C -0.7277546605 -1.1919785467 0.2318725283
N -1.3813254426 0.000155078 -0.2842984875
C -0.7275009935 1.1920589973 0.2320716395
C 0.7277472254 1.1919038328 -0.2321199043
N 1.3812028991 -6.68618e-05 0.2844276145
H 0.7414397714 -1.2274010718 -1.3347967431
H 1.2420619361 -2.0716936237 0.1585812935
H -1.2423126494 -2.0714684471 -0.1589081541
H -0.7415656091 -1.2275688141 1.3346739098
H -2.3591964543 0.0002073816 -0.0130053414
H -1.2420342192 2.071751079 -0.158264656
H -0.7409667629 1.2272457606 1.3348892686
H 0.7412160078 1.2269322879 -1.3349548615
H 1.2424412546 2.0715845191 0.1580352629
H 2.3592325414 -0.0001625678 0.0137801291
*
