! r2scan-3c def2/J RI DEFGRID2 scfconv6 printgap
%output
    printlevel normal
end
* xyz 0 1
C 1.841565056 -1.4400854398 0.0003590314
C 0.5328873742 -0.7174603755 -9.66448e-05
C -0.6716430612 -1.4059152262 -0.0003125972
C -1.8671231188 -0.7038417938 -0.0001456516
C -1.8064717718 0.6781392048 0.0002772811
N -0.6675362012 1.3530875417 0.0002056547
C 0.4792024182 0.6843649983 -8.0083e-05
C 1.72808101 1.5069672217 -0.0002828026
H 2.424401073 -1.1709672295 -0.8789898846
H 2.4244326533 -1.1697423831 0.8794461838
H 1.6840409624 -2.51538814 0.0011660031
H -0.6749122476 -2.4870380365 -0.0004439817
H -2.8163577362 -1.2155985262 -0.0003435287
H -2.7038869328 1.2829207067 0.0005642812
H 1.4654905501 2.5598970928 -0.0016091479
H 2.3270332147 1.286019571 0.8810617472
H 2.3281401995 1.2839120279 -0.8803554398
*
