! pbe def2-sv(p) def2/J RI DEFGRID1 loosescf d4 GCP(DFT/SV(P)) printgap
%output
    printlevel normal
end
* xyz 0 1
C -2.0972996484 -0.5746676982 -0.7099253783
C -1.3608206151 -0.3065608668 0.6060640359
C -0.0092713979 0.2879057293 0.3090500398
O 0.2562528934 1.4714104718 0.3533791817
O 0.8630336668 -0.6453205304 -0.0506669463
C 2.1833698364 -0.2382483841 -0.4194021101
H -2.2181411695 0.3494805292 -1.2702004468
H -1.5377979627 -1.2822086838 -1.3161004852
H -3.0794989311 -0.9879167219 -0.5018447588
H -1.222060653 -1.241617252 1.1470581587
H -1.9224274297 0.4007595969 1.2149326415
H 2.8107452359 -0.1992703867 0.4711905828
H 2.1535452024 0.7474370319 -0.885214837
H 2.5493480147 -0.9903893034 -1.1122894682
*
