! pbe def2-sv(p) def2/J RI DEFGRID1 loosescf d4 GCP(DFT/SV(P)) printgap
%output
    printlevel normal
end
* xyz 0 1
C -2.4511190563 0.6568180627 -1.3029941059
C -2.0461232427 0.4146271549 0.1603226684
H -2.9665357438 0.3735821975 0.7518171967
C -1.1191777717 1.5225777601 0.6952841916
C 0.3069624821 1.0438110374 0.9595104776
C 0.7928452682 0.1973467172 -0.222963616
H 0.5409111718 0.739799316 -1.1422003606
C 0.0116672508 -1.1143697509 -0.1793081967
C -1.4334254641 -0.9637526795 0.2118535022
O -2.1027299239 -1.9355072446 0.5171971556
C 2.2949920105 0.0147549606 -0.2413650845
C 2.9113281785 -1.1561195587 -0.288711273
C 3.0868755723 1.2925070262 -0.2496640069
H -3.107528497 -0.1404728231 -1.6461654102
H -2.9839369008 1.6007909976 -1.38112188
H -1.5790252696 0.6893974878 -1.949707512
H -1.0878310217 2.334619153 -0.0327785493
H -1.5348171265 1.9264862145 1.6189532533
H 0.9433746937 1.9133519122 1.1117749468
H 0.3426758756 0.4352584286 1.8661067052
H 0.0383340355 -1.6285264251 -1.143324194
H 0.4524849441 -1.7964211818 0.5520828924
H 3.9864823213 -1.2121928069 -0.3265461345
H 2.4013486447 -2.1020404554 -0.2937179511
H 4.0871530874 1.1180260038 -0.6357315051
H 2.5994300114 2.0471190645 -0.8623085753
H 3.1840898894 1.6857011776 0.7612245909
*
