  18
        -20.89186845
 C          0.5319929884        0.8894016652       -1.2592615932
 C          0.4079333292        0.0225424433       -0.0000033685
 C          0.5308268127        0.8936950179        1.2563853620
 C          1.5037829448       -1.0480751097        0.0023299580
 O         -0.8108927305       -0.7393347833        0.0005215042
 C         -2.0294808903       -0.0300418895        0.0000536174
 H          1.5388530234        1.2901554750       -1.3241194670
 H          0.3346939823        0.2875035983       -2.1433634637
 H         -0.1671325565        1.7217030282       -1.2356290755
 H          0.3341187459        0.2945646647        2.1424917772
 H         -0.1691490686        1.7251961105        1.2298459170
 H          1.5372712138        1.2956791030        1.3198820367
 H          1.4002952914       -1.6739033427        0.8842450444
 H          1.4006566541       -1.6773830001       -0.8771497902
 H          2.4856021918       -0.5860232184        0.0016300587
 H         -2.1399749027        0.5919928612       -0.8927896061
 H         -2.1409649439        0.5914013495        0.8931891110
 H         -2.8042494630       -0.7944666844       -0.0005998489
  18
        -20.88879477
 C          0.5049445161        0.9964467887       -1.1913012433
 C          0.3757186506        0.1521889718        0.0834094257
 C          0.9422528065        0.9202171300        1.2937524645
 C          1.1170915898       -1.1783325586       -0.0992731147
 O         -1.0055967317       -0.0599399106        0.4306442540
 C         -1.8170979520       -0.7741405825       -0.4742040782
 H          0.1744931839        0.4428037025       -2.0670141979
 H         -0.0943296406        1.8992930200       -1.0979922752
 H          1.5451669737        1.2725917099       -1.3357988638
 H          1.3249295452        1.8916038381        0.9977113896
 H          1.7373826339        0.3606780134        1.7759441156
 H          0.1402438488        1.0690694409        2.0118568653
 H          0.9482132380       -1.8170484357        0.7648363378
 H          0.7807212565       -1.6976198732       -0.9935881871
 H          2.1813003282       -0.9858038345       -0.1966151203
 H         -1.4742918061       -1.8045868905       -0.6052796533
 H         -1.8754973387       -0.2823476727       -1.4491654212
 H         -2.8070473623       -0.7840279611       -0.0217690268
