! pbe def2-sv(p) def2/J RI DEFGRID1 loosescf d4 GCP(DFT/SV(P)) printgap
%output
    printlevel normal
end
* xyz 0 1
C -2.4830680775 -0.4197889497 -0.3014231418
C -1.0757545368 -0.1871099512 0.2587292299
H -1.0834339269 -0.3735260286 1.3453208983
C -0.6138673311 1.2685120562 0.0320442158
H -1.2441635798 1.7306486611 -0.7371268947
C 0.8381317575 1.3000607906 -0.4921710181
H 1.2531025019 2.3051356023 -0.304627608
C 1.6824707519 0.294970664 0.30631798
H 2.7004792374 0.2411145244 -0.097153578
C 1.0859144651 -1.1278234766 0.1645877043
H 1.0620710248 -1.5857951925 1.1783004013
O -0.2206818531 -1.1255417547 -0.365005844
O 1.8950019463 -1.8477842929 -0.6926056157
O 1.8141459475 0.6926862474 1.6453037725
O 0.7943163554 1.0364080592 -1.86775867
O -0.730963041 1.9353771596 1.2676045967
O -3.0020802218 -1.6740264009 0.0523302601
H -2.4415404578 -0.3050715916 -1.3916860694
H -3.1622682156 0.3216855665 0.1221108654
H 1.4488573156 -2.6678853978 -0.9553654993
H 0.9632675691 1.0437783971 1.9647510267
H 1.68983209 0.9047894551 -2.2100570721
H -0.7493185123 2.8941400305 1.1338786056
H -2.4164393028 -2.3587656337 -0.3008906133
*
