! pbe def2-sv(p) def2/J RI DEFGRID1 loosescf d4 GCP(DFT/SV(P)) printgap
%output
    printlevel normal
end
* xyz 0 1
C -2.1881265879 -0.9167840369 -0.2028010877
C -1.1520901491 -0.3523494909 0.7833891038
H -1.6477930084 -0.3537391928 1.7631979291
C -0.7429425213 1.1099487861 0.5124383597
H -1.6017348934 1.6379817137 0.0842034612
C 0.4537738713 1.2641483387 -0.4498459729
H 0.8159916982 2.295212208 -0.3354223911
C 1.5883738332 0.3068045148 -0.0289361373
H 2.3297769826 0.2713091422 -0.8370203168
C 1.0734572793 -1.1291855294 0.1497930203
H 1.8436859288 -1.6935209232 0.702402416
O -0.0449567756 -1.228902866 0.9906242607
O 0.8668839301 -1.6671915741 -1.1153157623
O 2.1646708166 0.7002534358 1.1965703489
O 0.1231009609 1.1376958432 -1.801518336
O -0.4632347217 1.7646127856 1.7301372289
O -1.7410402837 -0.8709812672 -1.5387422867
H -3.1023612546 -0.3236259688 -0.0818922633
H -2.3905941176 -1.9531696978 0.0956324003
H 0.5973367331 -2.5946311668 -1.0415050845
H 2.7552750448 1.4531740367 1.0502238565
H -0.3335494515 0.2852246353 -1.939433485
H 0.3455739548 1.3760588344 2.1054104464
H -2.4540971303 -1.1562809838 -2.1266284439
*
