! pbe def2-sv(p) def2/J RI DEFGRID1 loosescf d4 GCP(DFT/SV(P)) printgap
%output
    printlevel normal
end
* xyz 0 1
C -3.2827239951 0.3004007156 -0.2444238744
C -1.8905747463 0.3654981333 0.3955998402
H -2.0150146259 0.29947626 1.4822423062
C -1.1513212844 1.6531537829 0.0343933417
C 0.3313315314 1.4878975094 0.3476920922
C 0.9831541595 0.4620083307 -0.5997073085
H 1.3298088527 0.9864535 -1.4949406149
C -0.0449496942 -0.5959957596 -1.0573617589
C -1.1083026458 -0.856384231 -0.0333065405
O -1.361308948 -1.9668897092 0.3973666464
C 2.1889512522 -0.151557325 0.0760752236
C 2.1063322896 -1.2057411995 0.8721645611
C 3.4843301368 0.5543206414 -0.1865797361
H -3.7783664521 -0.6275466773 0.0310902608
H -3.8849185217 1.1376216241 0.0970238407
H -3.2058315933 0.3435098485 -1.3284802949
H -1.2827707854 1.881997939 -1.0240606787
H -1.5683264913 2.4814659409 0.6081761804
H 0.8476751782 2.4439798239 0.2624590418
H 0.435735255 1.1418059226 1.3791755395
H -0.5628735672 -0.2211767763 -1.9426547676
H 0.4565950513 -1.5283779306 -1.3181197193
H 2.9745662227 -1.6112390467 1.3636733131
H 1.1777519241 -1.7150811559 1.0677240922
H 3.7359264695 0.4924863994 -1.2444028077
H 3.3971685929 1.6074050112 0.0751111899
H 4.2919407078 0.1138275387 0.3907573901
*
