! r2scan-3c def2/J RI DEFGRID2 scfconv6 printgap
%output
    printlevel normal
end
* xyz 0 1
C -9.8336e-06 -1.3908500525 0.0001344057
C 1.1999029203 -0.6968082807 0.0001201109
C 1.1998859768 0.6968123492 0.0001919646
C -5.761e-06 1.3908454815 5.92898e-05
C -1.1998923729 0.6968089032 6.01686e-05
C -1.1999074009 -0.6968060598 3.73648e-05
Cl -2.686811042 -1.5665027344 -2.53603e-05
Cl -2.6867928329 1.5665004261 -6.02881e-05
Cl 2.6867934031 1.5664934719 -3.24703e-05
Cl 2.6868201921 -1.566491701 -8.56363e-05
H -1.69026e-05 -2.4682659422 9.94694e-05
H -9.5576e-06 2.4682569524 -0.0001217111
*
