! pbe def2-sv(p) def2/J RI DEFGRID1 loosescf d4 GCP(DFT/SV(P)) printgap
%output
    printlevel normal
end
* xyz 0 1
C -2.5528693288 -0.6831814202 -0.3654861022
C -1.1758923883 -0.3135441561 0.2011451152
H -1.235632505 -0.2341086392 1.2991013917
C -0.697206397 1.0365654066 -0.3504956811
H -0.6793335614 0.9784062995 -1.4509554015
C 0.726998212 1.3195809158 0.1628965462
H 0.6815557824 1.4317559286 1.2544580935
C 1.6550605645 0.1488690395 -0.1933658069
H 1.7294049702 0.0454793398 -1.2820180594
C 1.0358894607 -1.1580671713 0.347480677
H 0.9965096404 -1.103865298 1.4596590113
O -0.2684801513 -1.3395336372 -0.1497548756
O 1.8032281892 -2.2260932229 -0.0665799636
O 2.9665808417 0.3525585529 0.2476905327
O 1.1940868367 2.557710685 -0.3111366172
O -1.5890708751 2.035999308 0.069426663
O -3.1714566268 -1.7422393371 0.3144165347
H -2.4212430682 -1.0246430608 -1.3936921593
H -3.1747381336 0.2186956262 -0.35301487
H 1.2800130044 -3.0408955576 -0.0001610337
H 2.9964580768 0.402123423 1.2141856058
H 1.5542647764 2.4597807855 -1.2040999281
H -1.1583555712 2.8981438528 -0.0516585937
H -3.3968861064 -1.4644259874 1.2137670837
*
