! pbe def2-sv(p) def2/J RI DEFGRID1 loosescf d4 GCP(DFT/SV(P)) printgap
%output
    printlevel normal
end
* xyz 0 1
C -3.0404406648 -0.9833077712 1.7610878934
N -2.1624063655 -0.2708708791 0.8594065275
C -2.3245490432 -0.2820514825 -0.4688254517
O -3.2380110864 -0.8398654486 -1.0510430762
O -1.4175436874 0.4041478196 -1.2026102293
C -0.2313799975 0.8766593407 -0.6293580304
C -0.0532244214 2.2300249464 -0.510374367
C 1.1499711481 2.7377684141 0.0022972526
C 2.1480832854 1.8897398019 0.3916055702
C 1.9968713853 0.4918378044 0.2713028425
C 0.7883872794 -0.0382727408 -0.2559183976
C 0.6525291961 -1.435445215 -0.3967785348
C 1.6651485699 -2.2732964977 -0.0199086523
C 2.8543522007 -1.7541451933 0.5149025387
C 3.0172451984 -0.4041477344 0.6544037216
H -3.4872090083 -0.2901020514 2.4720239572
H -2.4829568831 -1.7510568507 2.2967133016
H -3.8229916553 -1.449266153 1.1659237122
H -1.3797200181 0.2239807056 1.2617304344
H -0.8443383125 2.8943865934 -0.8200687474
H 1.2709901113 3.8057490957 0.0870406571
H 3.0725062807 2.2764536324 0.7916563891
H -0.2594612573 -1.8340647951 -0.8192389842
H 1.5536768869 -3.3403757663 -0.1353071837
H 3.6406177693 -2.4319502157 0.8091431224
H 3.9329308472 0.0004770825 1.057816483
*
