! pbe def2-sv(p) def2/J RI DEFGRID1 loosescf d4 GCP(DFT/SV(P)) printgap
%output
    printlevel normal
end
* xyz 0 1
C -1.7724215493 -0.6002461586 -1.109651178
C -1.2416426878 -0.5028035774 0.3389699453
H -2.0561868674 -0.7943963213 1.0162115545
C -0.8048840524 0.9274769657 0.6814209717
H -1.6019534894 1.6105468807 0.3576538166
C 0.4701171258 1.3321690302 -0.0800810875
H 1.0593262115 1.9645894399 0.5999002309
C 1.3378854079 0.1137006145 -0.4288807894
H 1.0395158627 -0.2818068654 -1.4123367193
C 1.112110935 -0.9989152185 0.599799974
H 1.3646303848 -0.6124773262 1.6067374139
O -0.2186689513 -1.4600340919 0.5926262266
O 1.9367749177 -2.0606796929 0.2587473281
O 2.6811329733 0.5212356994 -0.4508962294
O 0.094086261 2.0477185061 -1.2293604972
O -0.5346522553 1.0755708684 2.0564987829
O -3.1444678212 -0.3096706622 -1.1863021364
H -1.554055784 -1.605663739 -1.4880960047
H -1.2811394544 0.1385031916 -1.744980953
H 1.6978638771 -2.8386430085 0.7850878733
H 3.242664941 -0.2642585244 -0.5390526619
H 0.8869891762 2.4157250637 -1.6459695833
H -1.3571872058 1.0061519884 2.5632062555
H -3.6538702028 -1.0219562808 -0.7729739773
*
