! wb97x-v def2-tzvp def2/J RIJCOSX DEFGRID2 scfconv7 GCP(DFT/TZ) printgap
%output
    printlevel normal
end
%cpcm
    smd true
    smdsolvent "water"
end
* xyz 0 1
C -2.5710620255228704 0.49718443315190713 -0.3922987369459924
C -1.4002402790319262 -0.2654709308543956 0.17168480625876825
O -0.18564159485093007 0.43216836681208565 -0.2572928170044874
C 0.9828616458166806 -0.10794135295590593 0.13089070718016588
O 1.0578137639243534 -1.131071668102828 0.7942821584083118
C 2.161409938162333 0.6922358696199455 -0.3221783794583713
H -2.5361881630059973 0.518743405175771 -1.4852976960578343
H -3.498581981808666 0.003161186638520288 -0.08827328826603167
H -2.5899935908213405 1.5241030527587391 -0.01640151654738907
H -1.3583656970340408 -1.2915211018929822 -0.20517605683578335
H -1.4129574154219455 -0.2889110510636024 1.2654805308706558
H 2.571462611076392 1.2134450620630917 0.5498301717042686
H 1.893764498746839 1.4262492430502716 -1.082116351092636
H 2.932578156241907 0.016019950219895288 -0.6974998519656624
*
