! pbe def2-sv(p) def2/J RI DEFGRID1 loosescf d4 GCP(DFT/SV(P)) printgap
%output
    printlevel normal
end
* xyz 0 1
C -2.6418236034 -0.0537257583 1.1457290871
C -1.7426177966 -0.0005531299 -0.054501825
O -2.1559896177 -0.1637000954 -1.1862811059
C -0.2804695479 0.2420448467 0.2492833962
C 0.4568737804 0.8522867467 -0.9413064333
C 1.8951361384 1.2128736145 -0.5544632925
C 2.4658344027 0.2235676207 0.4699350579
C 1.8455973496 -1.1547936946 0.2718554308
C 0.3517723881 -1.1225938712 0.6134271894
H -3.6277823061 -0.4137273835 0.865247373
H -2.208977698 -0.6927177279 1.9100151876
H -2.731182725 0.9498830579 1.5564578019
H -0.2036406999 0.9171544138 1.1046223416
H 0.443202122 0.1338455061 -1.7623392434
H -0.0749687169 1.7406883989 -1.2875864016
H 2.5116239723 1.2135311785 -1.4544718277
H 1.9229882537 2.2210979774 -0.1382586797
H 3.5498076399 0.1669193527 0.3652549936
H 2.251105802 0.564873191 1.4839510652
H 1.988977717 -1.4623099365 -0.7648336745
H 2.3431325212 -1.8897336373 0.9058475771
H -0.1609908199 -1.9184140134 0.0678869812
H 0.2126486013 -1.3052379722 1.6794924013
*
