! pbe def2-sv(p) def2/J RI DEFGRID1 loosescf d4 GCP(DFT/SV(P)) printgap
%output
    printlevel normal
end
* xyz 0 1
C 1.8879259578 -1.4737240651 0.0002382565
C 2.5798661262 -0.2646341464 -0.0005143893
C 1.9001530199 0.9336367094 -0.0004235022
C 0.502187538 0.9761545492 -0.0001391164
C -0.1914318552 -0.2531412186 0.0007530217
C 0.514704145 -1.462808889 0.0008417733
N -1.6027381692 -0.3062885553 0.0014675709
O -2.2533076015 0.7288804053 -0.0018873932
O -2.1396798092 -1.4114425161 0.0001246982
O -0.1650122571 2.1285167915 -3.93349e-05
H 2.422208627 -2.4086868252 0.0002648373
H 3.6580924891 -0.2633182796 0.0006013403
H 2.4477060849 1.8634485121 2.69071e-05
H -0.0585119916 -2.3766134423 -0.0010620222
H 0.4360613057 2.8939475229 -0.0006297821
*
