! r2scan-3c def2/J RI DEFGRID2 scfconv6 printgap
%output
    printlevel normal
end
%cpcm
    smd true
    smdsolvent "water"
end
* xyz 0 1
C -0.8625376652 5.18019e-05 -3.16533e-05
F -1.3186498482 -0.5058610427 1.1304019015
F -1.3196942064 1.2316449465 -0.1271053276
F -1.3191683392 -0.7261911683 -1.0030071637
Br 1.0706176616 8.90473e-05 -6.40541e-05
*
