! pbe def2-sv(p) def2/J RI DEFGRID1 loosescf d4 GCP(DFT/SV(P)) printgap
%output
    printlevel normal
end
* xyz 0 1
C 2.1248514846 -2.0974523719 -0.0403727664
C 1.1680925377 -0.9672359262 0.1091950613
C 1.5480360117 0.3139252615 -0.0225779945
C 0.6337487153 1.4295830973 0.1219372077
O 0.9888197992 2.593988135 -0.0498526318
C -0.776669948 1.0891124326 0.5367085542
C -1.253757349 -0.2599804893 -0.0114877558
C -0.2463688986 -1.3336236168 0.421427268
C -1.3416429223 -0.203048403 -1.5382189649
C -2.6340544259 -0.5888234399 0.5604491264
H 3.1474961526 -1.7433592831 -0.1298330243
H 1.8727662432 -2.6725614974 -0.9304416775
H 2.0472601341 -2.7678731678 0.8132230667
H 2.5709824925 0.5732514228 -0.2582607103
H -0.7770016894 1.0588467413 1.6309510617
H -1.4380368591 1.9019228635 0.2305425485
H -0.3227471313 -1.4760362816 1.5043901612
H -0.49173053 -2.2878993868 -0.0474481252
H -0.3723890749 0.0280691392 -1.9744538479
H -2.0434565697 0.5679983369 -1.847458681
H -1.6834761991 -1.1558808684 -1.9349121129
H -2.6056588353 -0.622237629 1.6469301674
H -2.9748183081 -1.5538626373 0.1940094549
H -3.3571990991 0.1655570409 0.2608009173
*
