! pbe def2-sv(p) def2/J RI DEFGRID1 loosescf d4 GCP(DFT/SV(P)) printgap
%output
    printlevel normal
end
* xyz 0 1
C -2.2537782483 -0.9757855152 0.7695341144
C -0.8140980185 -0.4504757482 0.7455438035
H -0.5301298354 -0.1545433248 1.7650955035
C -0.6498719569 0.7576537549 -0.1926485697
H -0.8275656228 0.41233025 -1.2197019334
C 0.7885532253 1.2994407072 -0.0955092716
H 0.780515674 2.1108182357 0.6404055223
C 1.7715807032 0.195535616 0.3609091125
H 2.7423188118 0.3986788821 -0.1128457766
C 1.2856208136 -1.1590733904 -0.1695656903
H 1.9711330951 -1.9525500302 0.1676922237
O 0.0279133598 -1.5234430755 0.3298524729
O 1.2778360961 -1.0679947228 -1.5643029807
O 1.9022444459 0.0934131837 1.7543864625
O 1.2191042015 1.8826424813 -1.2973885958
O -1.5356720264 1.7972323944 0.140677388
O -2.838173319 -0.853847097 -0.5092013583
H -2.8234517893 -0.3963480755 1.5061340249
H -2.2058722162 -2.0219996955 1.0874839173
H 0.9839487955 -1.9106244963 -1.9437715801
H 2.3634455374 0.8744087832 2.0945364798
H 1.254446322 1.1938542431 -1.9801352209
H -2.4185448766 1.5652735845 -0.1820976501
H -3.6610132865 -1.3612262922 -0.5328110766
*
