  15
        -15.78107369
 C         -2.0692727928        0.0707601554       -0.0001326622
 C         -0.7066249558        0.6856347230        0.0002166613
 C          0.4516494707        0.0373031357        0.0002059289
 C          1.7618089715        0.7680709474       -0.0001378244
 C          0.5563704657       -1.4646277538        0.0000282840
 H         -2.6249870997        0.3971925245        0.8787843555
 H         -2.6244202576        0.3978867262       -0.8791378680
 H         -2.0232328380       -1.0133308081       -0.0006330996
 H         -0.7025937292        1.7689567718        0.0001597871
 H          2.3428604075        0.4958666336        0.8804615688
 H          2.3430732100        0.4942385669       -0.8800639259
 H          1.6133725470        1.8448525741       -0.0011860797
 H          0.0689595746       -1.8866336679        0.8773661837
 H          0.0808784647       -1.8850584702       -0.8846365727
 H          1.5984067126       -1.7715164613        0.0067361330
  15
        -15.78106126
 C         -2.0419888183        0.0333361550        0.0000171162
 C         -0.7037473660        0.7055507651       -0.0000007418
 C          0.4542165689        0.0546339729        0.0000005258
 C          1.7738446679        0.7648222570        0.0000098540
 C          0.5137803019       -1.4464904195       -0.0000010537
 H         -2.1514577808       -0.6068825764        0.8756316199
 H         -2.8434715980        0.7661651853        0.0051917111
 H         -2.1554975660       -0.5986864920       -0.8810732562
 H         -0.7074320777        1.7870299109       -0.0002077745
 H          2.3509993204        0.4838564734       -0.8804109902
 H          1.6397533622        1.8434839853        0.0003463025
 H          2.3512678463        0.4833517869        0.8800975182
 H          0.0104052945       -1.8485153563        0.8785319643
 H          0.0090437819       -1.8486830324       -0.8776990241
 H          1.5427984533       -1.7939696646       -0.0007143212
  15
        -15.78104122
 C         -2.0982372321        0.1069084812        0.0001278951
 C         -0.7135497417        0.6705075247       -0.0001663359
 C          0.4432066907        0.0194069576       -0.0002208693
 C          1.7494529033        0.7622804805        0.0001339480
 C          0.6042350841       -1.4720452570        0.0000046039
 H         -2.6374661766        0.4545318617       -0.8809276007
 H         -2.1071666306       -0.9782171024        0.0041962554
 H         -2.6392356540        0.4608211354        0.8775381034
 H         -0.6884957229        1.7544645653       -0.0009724011
 H          2.3319737543        0.4994357227       -0.8821694046
 H          1.5929794811        1.8376797859        0.0059844838
 H          2.3364952089        0.4902484624        0.8765798570
 H          1.1820511749       -1.7803712975       -0.8705686514
 H          1.1533726760       -1.7831570739        0.8880950249
 H         -0.3470498327       -1.9928312563       -0.0163166972
  15
        -15.78100069
 C         -2.0549428881        0.0500802185       -0.0007171002
 C         -0.7050033619        0.6970179358        0.0024253525
 C          0.4528854620        0.0470441383       -0.0006921250
 C          1.7685200898        0.7660187053       -0.0000299913
 C          0.5333549082       -1.4547854384        0.0010381112
 H         -2.3714138088       -0.1636329754       -1.0227645037
 H         -2.0435445332       -0.8875891056        0.5496733702
 H         -2.7933278392        0.7105957129        0.4471519853
 H         -0.7042855735        1.7791705069       -0.0114398779
 H          1.6284278215        1.8437307018        0.0203869719
 H          2.3551648190        0.4722068028        0.8697878960
 H          2.3398195802        0.5045507169       -0.8902406698
 H          0.1470006523       -1.8578067959        0.9369157868
 H         -0.0584754239       -1.8735943107       -0.8106234964
 H          1.5624287658       -1.7832983313       -0.1129686196
  15
        -15.78086726
 C         -2.0712463540        0.0650528570       -0.0012516061
 C         -0.7087920218        0.6934459259        0.0014919960
 C          0.4467662666        0.0399271793        0.0039959867
 C          1.7633479033        0.7599975305       -0.0018271467
 C          0.5574147686       -1.4561584254       -0.0002472518
 H         -2.2336269184       -0.5164965922        0.9061809563
 H         -2.8403783631        0.8302031189       -0.0557777785
 H         -2.1912017505       -0.6026504334       -0.8533296070
 H         -0.6929842154        1.7755354899        0.0023643166
 H          2.3288764875        0.5187593388        0.8978406596
 H          2.3578854259        0.4479465158       -0.8596433138
 H          1.6234263535        1.8368945472       -0.0462922761
 H         -0.4007103496       -1.9315855956        0.1810443935
 H          0.9371134897       -1.7970316158       -0.9633517253
 H          1.2606637088       -1.7801768742        0.7652020002
