! wb97x-v def2-tzvp def2/J RIJCOSX DEFGRID2 scfconv7 GCP(DFT/TZ) printgap
%output
    printlevel normal
end
* xyz 0 1
C -3.492146050741436 0.2836822449923331 3.2830417151040506e-05
C -2.758276279245192 1.4682835864605082 5.86798829450139e-05
C -1.3676065563251611 1.416815807932878 5.862860374709492e-05
C -0.7188515300743432 0.18593481734747347 3.384339366346303e-05
C -1.4488268448848038 -1.0079299811734894 9.002884466064217e-06
C -2.8450151550901652 -0.9439112164816004 7.994987869652101e-06
O -0.8844431427775689 -2.252121484307413 -1.2285106877260074e-05
I 1.4007020671254249 0.12571596896429302 4.0500341720924136e-05
H -4.576802133650526 0.3130503796667238 2.7990740984853057e-05
H -3.259017037089457 2.4303133990608425 7.632758677401206e-05
H -0.7864913055770671 2.3320214381981015 8.049334368658732e-05
H -3.403655266028891 -1.8744862001796094 -1.3218081923881107e-05
H 0.08366057041479905 -2.1697698724983803 -6.745639068154205e-06
*
