! r2scan-3c def2/J RI DEFGRID2 scfconv6 printgap
%output
    printlevel normal
end
%cpcm
    smd true
    smdsolvent "water"
end
* xyz 0 1
C -2.6914522956 -0.475067411 0.6411701075
C -1.4689439776 -0.0283285271 -0.1105877669
O -1.4123056306 -0.0816621312 -1.3228982159
C -0.3496558896 0.4977496462 0.7665356025
C 0.5546033099 1.5162000594 0.0611269446
C 1.4441453959 0.8834730542 -1.0065366507
C 2.2632975997 -0.2622294233 -0.4225707336
C 1.3321794122 -1.3062592709 0.1846639583
C 0.4926125722 -0.6799728418 1.2925362414
H -3.2624462819 0.4125615718 0.908830129
H -3.3104076243 -1.108375745 0.0113213088
H -2.4227298906 -0.9922337021 1.5568347229
H -0.8210105119 0.9842980365 1.6266662542
H -0.0653962219 2.2906246173 -0.3961335126
H 1.1858910828 1.9901733252 0.8164885298
H 0.8192611392 0.5053681764 -1.8167214272
H 2.1066151096 1.6463865684 -1.4207807408
H 2.8750564295 -0.7159131505 -1.2042586482
H 2.9329507209 0.1216740754 0.3508975527
H 0.677517543 -1.7016472696 -0.5957497796
H 1.9117697731 -2.1370617351 0.5916503549
H -0.1556535163 -1.4345355326 1.7406956034
H 1.1571808543 -0.2996956092 2.0708148313
*
