! r2scan-3c def2/J RI DEFGRID2 scfconv6 printgap
%output
    printlevel normal
end
%cpcm
    smd true
    smdsolvent "water"
end
* xyz 0 1
C 2.1329228413 -0.5719101364 -0.5960791721
C 1.1636576372 -0.1403727734 0.506417605
H 1.6148661359 -0.3471065915 1.4827335888
C 0.7382421891 1.3337007709 0.3603770816
C -0.649601197 1.2631674085 -0.293520987
C -0.9502574815 -0.2452955876 -0.4083269285
H -0.7520387635 -0.5908187041 -1.4361326012
O -0.0404235191 -0.8935399358 0.4748073411
C -2.3722870227 -0.6210227772 -0.0201580888
H 2.2987078184 -1.6447082886 -0.537579658
H 1.7257369105 -0.3341723602 -1.5756552986
H 3.0818969988 -0.058601327 -0.4717254634
H 0.6810125598 1.8084933607 1.338218773
H 1.4530756764 1.8817490488 -0.2490237592
H -1.3993397123 1.7429827623 0.3336683525
H -0.6660267996 1.7362488904 -1.2727928222
H -2.5651301639 -0.3185064597 1.0058325046
H -2.5008776003 -1.6973024238 -0.0931723719
H -3.0771127385 -0.1287499659 -0.6834966543
*
