! pbe def2-sv(p) def2/J RI DEFGRID1 loosescf d4 GCP(DFT/SV(P)) printgap
%output
    printlevel normal
end
* xyz 0 1
C -2.3466841141 -0.8388226507 0.6134606789
C -0.8846830461 -0.3785875975 0.6553485915
H -0.5573401967 -0.3213758605 1.7010903782
C -0.7228801384 1.004355235 0.0092130106
H -1.2673288513 0.9945163593 -0.9447363261
C 0.7656807145 1.2848970999 -0.3126962973
H 1.0003710681 2.2869463814 0.0727399657
C 1.6946894755 0.2616351468 0.3727631075
H 2.7174588834 0.3874230329 -0.016870712
C 1.2724077051 -1.1678118979 -0.0258845539
H 1.7110529416 -1.8726526439 0.6981406781
O -0.1263843998 -1.3452818214 -0.0542905789
O 1.7829483407 -1.5153255582 -1.2653802856
O 1.6892916709 0.3565348042 1.772944064
O 0.9300570453 1.2306170955 -1.7127019228
O -1.2540576522 1.9548589725 0.8981845504
O -2.8293130213 -0.9749507417 -0.6976550547
H -2.9644504645 -0.0830126018 1.1005978552
H -2.4303996695 -1.7866281482 1.1580306145
H 1.3744166944 -0.9421147153 -1.9397007129
H 2.0398341867 1.2164989634 2.0494495147
H 1.7458768217 1.6833836512 -1.9706719495
H -1.5072552736 2.7535056267 0.4139521944
H -2.2794275351 -1.6309324384 -1.1504135961
*
