! wb97x-v def2-tzvp def2/J RIJCOSX DEFGRID2 scfconv7 GCP(DFT/TZ) printgap
%output
    printlevel normal
end
* xyz 0 1
C -4.355550491888483 -1.3529958430712388 -0.3425946506014307
N -3.3001283300720248 -0.7824635213250524 0.48461619871820794
C -2.2260490180215413 -0.21073868541429402 -0.07054761935972668
O -1.9663575530422253 -0.16704112157888162 -1.2674281399285336
O -1.410482259009782 0.34637473484983433 0.9020434086444188
C -0.18848225512852954 0.8669095347985595 0.4571767824180245
C -0.06327780554154092 2.2231757483967356 0.3171898477773712
C 1.183122989577208 2.769091578917226 -0.05573968148035251
C 2.263678750099258 1.9508836683204878 -0.2813808607281312
C 2.147900448807623 0.5459619809526914 -0.14213531428528375
C 0.8905819956682806 -0.023411267407012038 0.23988886113901936
C 0.7765740647129131 -1.4266248940182382 0.38451828874798283
C 1.8640973393724096 -2.2365197928413774 0.1557528007218252
C 3.1058766834051004 -1.6819486637219807 -0.22297319652844752
C 3.244338880534914 -0.32218292682613764 -0.36716252799938015
H -4.881855091352319 -0.5804400856838808 -0.9135205902984458
H -5.068312042775476 -1.854651545684573 0.31268058003287963
H -3.9420739985824493 -2.0875568664107864 -1.0387416242204752
H -3.4329055283713186 -0.6984031161574598 1.4809824361861508
H -0.921401549410027 2.862328176137754 0.4955314371380306
H 1.2779193314839061 3.844466633349192 -0.1637448403540026
H 3.2234679144204854 2.3693482515301234 -0.569136780637725
H -0.1733516794505049 -1.8599716253515004 0.6804615045867218
H 1.7699642406874385 -3.3117925242988893 0.2685961016688538
H 3.953438356672401 -2.3367011630325702 -0.3985005129900055
H 4.19798658682917 0.10989376712686212 -0.6564478780137517
*
