  6
         -8.69859578
 C          1.2703790557        0.0000276607       -0.0000005638
 C         -0.1589998897       -0.0000693912        0.0000024492
 N         -1.3050284442        0.0000251472       -0.0000013349
 H          1.6307168377       -0.5326289541        0.8779953463
 H          1.6303889999        1.0268636031        0.0222478426
 H          1.6307138967       -0.4940868375       -0.9002471055
