! pbe def2-sv(p) def2/J RI DEFGRID1 loosescf d4 GCP(DFT/SV(P)) printgap
%output
    printlevel normal
end
* xyz 0 1
C -1.7041703838 -1.3746827521 -0.5078895299
C -1.1234652756 -0.4994998437 0.6227686846
H -1.8442802989 -0.4642281232 1.4479953279
C -0.8703905087 0.9529289395 0.1418171768
H -1.21801242 1.0394709625 -0.8949249112
C 0.6279422238 1.2657375574 0.2063746516
H 0.9399571724 1.3662516535 1.2539042376
C 1.4226345061 0.1040145709 -0.4124832935
H 1.0787724267 -0.0798765129 -1.4428678992
C 1.1848031771 -1.1704683996 0.4128561582
H 2.008934224 -1.2631235585 1.1348721786
O 0.0286854471 -1.0890177005 1.2146763
O 1.15186407 -2.2576658527 -0.4542362497
O 2.7984781227 0.3806034246 -0.4108781547
O 0.9713884267 2.4835231574 -0.4030284575
O -1.6404167814 1.8912249214 0.8495157499
O -2.8261442502 -0.7907165313 -1.1160781331
H -1.9402169066 -2.3644701169 -0.0994809656
H -0.9614321986 -1.498153327 -1.2986507938
H 1.2204722944 -3.0883562783 0.0402741076
H 2.9137854029 1.3239556656 -0.6191542413
H 0.4995244802 2.5796369606 -1.2432242507
H -1.3133123753 1.974369132 1.756922233
H -3.55161516 -0.7312221984 -0.4783209921
*
