! r2scan-3c def2/J RI DEFGRID2 scfconv6 printgap
%output
    printlevel normal
end
* xyz 0 1
C -2.6419853111 0.6160959318 0.760682233
C -1.8466530232 0.6277919247 -0.5485954076
C -0.381643573 0.3856352588 -0.2949960114
C 0.4974768785 1.4571154894 -0.2138809115
C 1.8418422485 1.2758017549 0.0548680669
C 2.3327485223 -0.0037490492 0.2502172894
C 1.4787533302 -1.0860379478 0.1748970782
C 0.1257627864 -0.9014694109 -0.0921541786
O -0.6490971844 -2.0233358073 -0.140372099
H -2.3022522825 1.4209773502 1.4082459174
H -2.5061417674 -0.321977368 1.2942813385
H -3.7019172188 0.7543978341 0.5622785097
H -1.9654087255 1.6007830888 -1.0277798353
H -2.2509791727 -0.1208553491 -1.2355225148
H 0.1137936321 2.4556482508 -0.3663075928
H 2.502197107 2.1273916496 0.111243514
H 3.3794168776 -0.1615621615 0.4606558102
H 1.8346694852 -2.0937710623 0.3234810071
H -1.5583101021 -1.7996685356 -0.3871987948
*
