! r2scan-3c def2/J RI DEFGRID2 scfconv6 printgap
%output
    printlevel normal
end
%cpcm
    smd true
    smdsolvent "water"
end
* xyz 0 1
C -1.8941730666 8.6584e-06 -0.7901184945
N -1.1010511344 -4.15239e-05 0.4215465303
C -0.2919402939 1.1942807584 0.5941578873
C 0.9428749499 1.2489393407 -0.314634209
C 1.7948857015 5.41909e-05 -0.099313696
C 0.9428958804 -1.2488587558 -0.3145107335
C -0.2921005318 -1.1943793978 0.5940863032
H -2.5307337435 0.8839119605 -0.7870695361
H -2.5301787801 -0.8843388885 -0.7874807865
H -1.3069875348 0.00030812 -1.71892509
H -0.9278918292 2.065866043 0.4239341703
H 0.0354617094 1.2102628315 1.6390393478
H 0.629373937 1.3051542881 -1.3593115531
H 1.5190576306 2.147216361 -0.0887725697
H 2.6477312276 0.0001536634 -0.7816388346
H 2.1804838101 4.01202e-05 0.9233680566
H 0.6294137901 -1.3051654689 -1.3591646227
H 1.5189680096 -2.1471717649 -0.0884713315
H -0.928140246 -2.065917256 0.4238967452
H 0.0353185759 -1.2102767668 1.6389303496
*
