! wb97x-v def2-tzvp def2/J RIJCOSX DEFGRID2 scfconv7 GCP(DFT/TZ) printgap
%output
    printlevel normal
end
%cpcm
    smd true
    smdsolvent "water"
end
* xyz 0 1
C -2.5880932872172298 -0.6075802694386218 -0.3198052580001211
C -1.2094471618484932 -0.2683251249854225 0.2100429582516495
H -1.228967251858554 -0.2406217823859828 1.3117443238869846
C -0.6946307220637956 1.0675198313838412 -0.32478324903585437
H -0.7154537161464046 1.0442268505576773 -1.4260951517961384
C 0.7386625563431101 1.2901289330544459 0.13960273491025899
H 0.7359945848902264 1.410443033658954 1.234558630895868
C 1.619843391462014 0.10079474599752561 -0.21635842119020557
H 1.703428635651699 0.01378337483810231 -1.3100491447627483
C 0.987002825579147 -1.1798992790680656 0.31976579256223825
H 0.9190467060861344 -1.1527915782427465 1.4198312784651381
O -0.3293990335130768 -1.3165477035792725 -0.23153512956423075
O 1.7542434270043117 -2.2697456033634116 -0.11694860823317857
O 2.9014003710074907 0.3304320854095399 0.37489317143392054
O 1.2011261535470654 2.494902260090278 -0.48328164300860266
O -1.5542198921014887 2.099161198735481 0.16845705055177537
O -3.0943602478112933 -1.8224200794993426 0.2451688643480572
H -2.5489474378103547 -0.6730541200677357 -1.4169223415730166
H -3.2889187133340925 0.1827993888965044 -0.04193374591426128
H 1.5592093146976154 -3.0270365856351633 0.45120555694875913
H 3.5121684982925077 -0.32370168059386395 0.010302905491065823
H 2.03407495594688 2.742326075217765 -0.06035430043762458
H -1.1674984760394505 2.942957295954535 -0.10345012119092528
H -2.492468325493901 -2.5313359044699153 -0.017923020507130013
*
