! pbe def2-sv(p) def2/J RI DEFGRID1 loosescf d4 GCP(DFT/SV(P)) printgap
%output
    printlevel normal
end
* xyz 0 1
C -2.5752107159 -0.6867259042 -0.2631019468
C -1.1813178145 -0.2819583091 0.2348904907
H -1.1970629885 -0.1947440883 1.3324658067
C -0.7189655757 1.0631972344 -0.3619710172
H -0.7031008541 0.9684921886 -1.4571238843
C 0.7068718453 1.3477903322 0.1302647711
H 0.671445971 1.5141576444 1.2131162177
C 1.63949714 0.160223115 -0.1623071303
H 1.7954733178 0.0667017723 -1.2493597689
C 1.0266696598 -1.1607098183 0.3212187008
H 1.0264824416 -1.1529529923 1.4297926287
O -0.2956389143 -1.3206789407 -0.1477644884
O 1.7822099896 -2.1932081366 -0.1865268759
O 2.8682597085 0.3265766636 0.4943358634
O 1.2493494527 2.5297572567 -0.4003392181
O -1.5343465754 2.1309225203 0.0497876983
O -3.0408643567 -1.8581991351 0.3515189264
H -2.5369159379 -0.8109470916 -1.3528044394
H -3.2928418931 0.0912351487 -0.0002621787
H 1.4395313855 -3.047971528 0.1182029885
H 3.1787558679 1.2323036947 0.3308428527
H 1.1472153371 2.5408491783 -1.3636826733
H -2.3110867095 2.2083969683 -0.5203175264
H -2.4139460886 -2.5718006161 0.1669033328
*
