! pbe def2-sv(p) def2/J RI DEFGRID1 loosescf d4 GCP(DFT/SV(P)) printgap
%output
    printlevel normal
end
* xyz 0 1
C -1.9070829029 -0.5706816162 -0.7975538926
C -1.2023688038 -0.0873221803 0.4832582811
H -1.9221083641 -0.0543923279 1.3108673449
C -0.6219340464 1.3254133494 0.3178767847
H -1.3729517468 1.9295157789 -0.2099342275
C 0.6862067238 1.3172132246 -0.5071725897
H 1.1933728748 2.2828482368 -0.3573455218
C 1.6504068837 0.2511237871 0.0470263319
H 2.466683343 0.1114429795 -0.6680355213
C 0.9653425559 -1.114830289 0.2347757318
H 1.6088360224 -1.719954414 0.8980585272
O -0.2366599608 -1.0213176253 0.9526341048
O 0.8271767865 -1.7255371214 -1.0075085649
O 2.2253186046 0.6835824346 1.2521480469
O 0.4566737755 1.0840003534 -1.8724013772
O -0.3917154579 1.8381534356 1.6132969172
O -2.3587105733 -1.89658237 -0.6860791402
H -1.2053112982 -0.5596965429 -1.6331862711
H -2.7413042593 0.1093323945 -1.0151686814
H 0.3156596675 -2.5443875741 -0.9099992603
H 1.5105064624 0.8327813323 1.8961710901
H 0.1846982317 1.9043922194 -2.3082409901
H -0.2452378732 2.7942829768 1.5718444427
H -2.9629380527 -1.9715045938 0.0663257367
*
