! wb97x-v def2-tzvp def2/J RIJCOSX DEFGRID2 scfconv7 GCP(DFT/TZ) printgap
%output
    printlevel normal
end
%cpcm
    smd true
    smdsolvent "water"
end
* xyz 0 1
C 2.082714556447329 -0.5886057539144778 -0.6162763404557585
C 1.1937242538163033 -0.12033139645341406 0.5270477925982278
H 1.6919883524847286 -0.31198525545070416 1.4830100753407673
C 0.7522589137418177 1.3465754435853607 0.3875344517223128
C -0.6398924189156772 1.264895996310542 -0.2786753534037344
C -0.9393715780661069 -0.24056603199444687 -0.38507622118530604
H -0.6849051044076565 -0.6044516602325456 -1.3916228203154761
O -0.04691857432680588 -0.8642349637881673 0.5700675417677189
C -2.360180037184872 -0.6353969203120253 -0.05207965543056482
H 2.2653260948122678 -1.665746602059298 -0.5482346859424737
H 1.6308252856286898 -0.3683718148936418 -1.589119465752317
H 3.047587724945983 -0.07361655109219928 -0.5692027861083536
H 0.6792785597705736 1.8147049390478354 1.3724298028344255
H 1.469993004955967 1.9201741219047919 -0.20471319168925947
H -1.396974555246727 1.7529235978125202 0.34269122627572624
H -0.6616843334879345 1.7371031528549752 -1.2641286584577203
H -2.6250002493824502 -0.3004321840453858 0.9565092847071917
H -2.4930742130618055 -1.7200729201025318 -0.11249849676788218
H -3.0486664065144384 -0.1683320581139253 -0.7632528454193548
*
