! pbe def2-sv(p) def2/J RI DEFGRID1 loosescf d4 GCP(DFT/SV(P)) printgap
%output
    printlevel normal
end
* xyz 0 1
C -2.323303238 -0.7788540286 -0.6833570421
C -1.072279185 -0.5318263609 0.1617528762
H -1.2524784485 -0.9159133687 1.1785495654
C -0.7281972162 0.9761823481 0.2855534381
H -1.5362065315 1.5588085534 -0.1693653848
C 0.5883754136 1.263243074 -0.462120508
H 0.8651227293 2.3091893352 -0.2923603214
C 1.7119305723 0.3707468605 0.1055726377
H 2.5473705836 0.3854892265 -0.605704551
C 1.2131735535 -1.0922206428 0.2141183854
H 1.0701789551 -1.33698652 1.288146186
O -0.0222554961 -1.2659714698 -0.4488872068
O 2.1443891125 -1.9220765798 -0.3760460374
O 2.0922827901 0.8802983022 1.3599137842
O 0.4592764317 1.1119416561 -1.8499566861
O -0.6638861248 1.3938446944 1.6260163833
O -3.4343250303 -0.2659842366 0.0084521513
H -2.4160686052 -1.8609902243 -0.8411799466
H -2.1980276412 -0.2853840585 -1.6550224614
H 1.7796070634 -2.8158786165 -0.473112656
H 2.9559720813 0.5291493266 1.6196204395
H 0.3127131618 0.1725929259 -2.0461422712
H 0.240048102 1.2647808751 1.9614851648
H -4.2305661481 -0.396278846 -0.5262399719
*
