! r2scan-3c def2/J RI DEFGRID2 scfconv6 printgap
%output
    printlevel normal
end
%cpcm
    smd true
    smdsolvent "water"
end
* xyz 0 1
C -2.6396284271 -1.3241507992 0.3956385148
C -1.950129763 -0.167184184 -0.3267130462
C -0.4503047547 -0.1515494815 -0.1657276673
C 0.2689300097 -1.3390302295 -0.230285281
C 1.6449560521 -1.3609146535 -0.0935454396
C 2.3307619146 -0.17761419 0.1093140496
C 1.6285155202 1.0124169246 0.1614537379
C 0.246425441 1.047584974 0.0228064247
C -0.4571727447 2.3727989462 0.0729797621
H -2.4112239481 -2.2809622509 -0.0654300852
H -3.7179721572 -1.1866837265 0.3633599451
H -2.3264422634 -1.3594118972 1.436690267
H -2.3657694665 0.7655329203 0.0518304404
H -2.1856216892 -0.2203915555 -1.3943354343
H -0.2525038335 -2.2692952274 -0.3950010798
H 2.177943974 -2.2988920827 -0.1465090432
H 3.4050024593 -0.1790705804 0.2209346784
H 2.1658158948 1.9384172827 0.3115771238
H -1.1320781482 2.4208731687 0.926793074
H 0.2660092269 3.178822451 0.166610897
H -1.0396546045 2.5354869221 -0.8320697381
*
