! r2scan-3c def2/J RI DEFGRID2 scfconv6 printgap
%output
    printlevel normal
end
%cpcm
    smd true
    smdsolvent "water"
end
* xyz 0 1
C -2.6220854177 -0.5547492025 1.0187814096
C -1.7670693411 0.0255028602 -0.0722460187
O -2.2200129745 0.2831304617 -1.1711460538
C -0.3097584091 0.2474624796 0.2742298485
C 0.4286990808 0.9661673437 -0.8553210144
C 1.89327568 1.1857821668 -0.492710079
C 2.5724390538 -0.1467306702 -0.1920705822
C 1.8434509839 -0.8682574034 0.9368589732
C 0.37638278 -1.0933076934 0.5798377635
H -3.6595642387 -0.2725222633 0.8604412861
H -2.5593297464 -1.6400543896 0.9581328173
H -2.2852081632 -0.2399799778 2.0004525614
H -0.2749300163 0.8658988319 1.1778556131
H 0.3556656954 0.3646739605 -1.764390863
H -0.0612766069 1.9208774947 -1.0590504782
H 2.403055901 1.6882694732 -1.3164044549
H 1.956644723 1.8328798174 0.3851104383
H 2.5590607951 -0.7692547426 -1.0894099826
H 3.6146256551 0.0205881011 0.0852559399
H 2.3202353472 -1.8302220902 1.1324588432
H 1.9060827906 -0.2694531602 1.8478850122
H 0.3093866015 -1.7337579639 -0.3025632188
H -0.1271672832 -1.5945922124 1.4062223231
*
