! pbe def2-sv(p) def2/J RI DEFGRID1 loosescf d4 GCP(DFT/SV(P)) printgap
%output
    printlevel normal
end
* xyz 0 1
C -1.8363448754 -0.9834021425 -0.8080556476
C -1.2977131522 -0.165700394 0.381200006
H -2.1035122757 -0.0653459197 1.1156501828
C -0.8124409153 1.2344157458 -0.0576458221
H -0.9897538929 1.3682354392 -1.1306716439
C 0.6992365966 1.3675455881 0.1928852628
H 0.8872178365 1.4415844519 1.2767202858
C 1.4101841514 0.118483219 -0.3358214627
H 1.1587450189 -0.0001532873 -1.4014114624
C 0.9101840142 -1.1107306058 0.4514360818
H 1.6327031257 -1.3138789418 1.2550234706
O -0.2919360048 -0.8656069108 1.113671497
O 0.7579824479 -2.237742067 -0.3709835349
O 2.8016047677 0.1939824383 -0.1723428699
O 1.2400507617 2.48413893 -0.469020578
O -1.5194499011 2.2823084625 0.5560007328
O -2.2448867643 -2.2684575393 -0.4217268153
H -1.0748647983 -1.0458541147 -1.5951142867
H -2.7224169926 -0.4822293789 -1.2020468512
H 1.6212982384 -2.6186619616 -0.5827275353
H 3.0997879994 1.0544894539 -0.5073059663
H 0.680141095 3.2550297173 -0.293818339
H -1.4811227016 2.1896742062 1.5196310105
H -1.4627348948 -2.7417382594 -0.0964316443
*
