! wb97x-v def2-tzvp def2/J RIJCOSX DEFGRID2 scfconv7 GCP(DFT/TZ) printgap
%output
    printlevel normal
end
%cpcm
    smd true
    smdsolvent "water"
end
* xyz 0 1
C -3.8949812226869422 -0.6232371205188447 0.001732196249002459
N -2.6907116268339872 0.20046079818261148 0.0005024326988494019
C -2.8866921302142825 1.6506820594431542 -0.0014097859457568541
C -1.4606676522414195 -0.3886829807611724 0.00027882980526733407
O -1.3034053521092506 -1.6234158948007846 0.0007201991276753252
N -0.3937729898062131 0.49315351975234534 -0.0005038231251522417
C 0.9788040618696034 0.20756608870265283 -0.000260030261549647
C 1.8429927223595621 1.3160367040037462 0.0008254211220856668
C 3.219171945951169 1.142311852148378 0.0011717741896929792
C 3.7714422827049168 -0.13798364699760246 0.0004601931509304347
C 2.916924032214896 -1.2355428769549996 -0.0007118611332338383
C 1.5321067241883204 -1.0807555423448567 -0.001129407496635485
H -3.62337209413347 -1.6774751486978117 0.0060397668073276095
H -4.498597059789775 -0.4166085608814583 -0.8895977790145791
H -4.500730117582287 -0.4099400507396319 0.8899969632108221
H -2.4607928400691397 2.1202151361396067 -0.8965275314905193
H -2.4632618133839523 2.1223198077064223 0.8938053328284228
H -3.9586630950802526 1.8506942679118172 -0.0031990176029901684
H -0.6067310733999413 1.4796501603037289 7.32394796290753e-05
H 1.4242698732692542 2.3188757012249397 0.0014103378705865686
H 3.8629463447964105 2.0164756485145223 0.0020199954211699267
H 4.847570628435475 -0.27507760869101694 0.000794919899911985
H 3.326276554914621 -2.2413577423975357 -0.0013418512514641046
H 0.892332692317933 -1.9498063150733145 -0.0021087798487331288
*
