! r2scan-3c def2/J RI DEFGRID2 scfconv6 printgap
%output
    printlevel normal
end
%cpcm
    smd true
    smdsolvent "water"
end
* xyz 0 1
C -2.4362359666 1.0540823128 -0.4481409115
C -1.7020555349 -0.2811311141 -0.2923420245
C -2.3140260154 -1.0512297489 0.8820397266
C -0.201666911 -0.1040849909 -0.1481156785
C 0.5734239276 -1.0412476373 0.5292375278
C 1.9443672666 -0.8930959033 0.6457765327
C 2.580931485 0.1980646904 0.0821379885
C 1.8277798842 1.1330544613 -0.6047784371
C 0.4568605514 0.9813525274 -0.7187506527
H -2.1970021321 1.536238433 -1.3916202029
H -2.1775639697 1.7263391166 0.3668653232
H -3.510603422 0.8868153219 -0.4283971541
H -1.8722173432 -0.8678763428 -1.2055424299
H -2.0401307235 -0.5841269404 1.825433783
H -1.9893821025 -2.0876699576 0.8955625725
H -3.3982918872 -1.0480135463 0.7983063153
H 0.1131472006 -1.9071728866 0.9768277079
H 2.5172918046 -1.6365559184 1.1807561643
H 3.6502897896 0.3164087107 0.1738209088
H 2.308499034 1.9882956353 -1.0571171097
H -0.0959376364 1.7277910605 -1.2657288587
*
