! pbe def2-sv(p) def2/J RI DEFGRID1 loosescf d4 GCP(DFT/SV(P)) printgap
%output
    printlevel normal
end
* xyz 0 1
C -0.3775628846 1.398128007 -0.1083451002
C 1.07381e-05 -8.7727e-06 0.3759013553
C -1.0220532499 -1.0260320632 -0.1083509129
C 1.3996106479 -0.3720880531 -0.1083556619
H 0.337372666 2.1344122232 0.2515504027
H -0.3863956067 1.4307050255 -1.1958258785
H -1.3659312807 1.6744209423 0.251598252
H 3.83016e-05 -3.34429e-05 1.4720670374
H -1.0459006366 -1.0499532861 -1.1958256957
H -2.0171292312 -0.7749835128 0.2516021707
H -0.7671728572 -2.0201378192 0.2515790242
H 1.6797629518 -1.359367382 0.2515903917
H 2.133080001 0.3457236048 0.2515652145
H 1.4322131148 -0.3807758432 -1.1958314555
*
