! wb97x-v def2-tzvp def2/J RIJCOSX DEFGRID2 scfconv7 GCP(DFT/TZ) printgap
%output
    printlevel normal
end
* xyz 0 1
C -1.9504284745908982 0.6489643050576367 1.038105441615105e-05
C -1.9126720712391352 -0.7435741998725031 -8.281798981960076e-05
C -0.6839344315833626 -1.4026895388956107 -0.000104685612203235
C 0.47238186050281245 -0.6493100886161308 -3.203138515923048e-05
C 0.45925554110380407 0.7449354273143245 5.7843535233719435e-05
C -0.7732919876039525 1.3921355865681495 7.929376505481559e-05
O 1.6106273593409042 1.489148002921564 0.00012881432963256787
F 1.685870150701034 -1.269146189766985 -4.6990718408195965e-05
H -2.903549769838395 1.166973809452085 2.718545226629268e-05
H -2.830863557279228 -1.320194204307197 -0.00014086913815381904
H -0.6140682301046414 -2.4853122418975735 -0.0001830812416408649
H -0.792592039067576 2.4771279597130036 0.00015782687668973322
H 2.3767044860766626 0.8965129509791114 0.00010537741458792355
*
