! wb97x-v def2-tzvp def2/J RIJCOSX DEFGRID2 scfconv7 GCP(DFT/TZ) printgap
%output
    printlevel normal
end
%cpcm
    smd true
    smdsolvent "water"
end
* xyz 0 1
C -0.5877184373928872 -1.1422591628799128 -0.14107699156712508
C -1.2813213398839396 0.2401556649826969 -0.00690413548458462
C -0.13691153562161187 1.274499843880318 0.15396858197742747
C 1.1359984912786756 0.5227701705416392 -0.25991730599445595
C 0.8758948712197651 -0.895583477945428 0.2542620369343265
H -0.6280194429088263 -1.481542466986108 -1.1821155115357334
H -1.0658185800090678 -1.9133234895411295 0.4704266329445625
H -1.8880020520906593 0.4556788210011053 -0.8915768394573055
H -1.955109895422669 0.26684720106665183 0.8546845739798677
H -0.30419017981467716 2.182047240263849 -0.4338186572254726
H -0.05042288127598647 1.576982773165277 1.2037670238739975
H 1.2260037813316946 0.5050618011478719 -1.353777592140058
H 2.0480009538181663 0.9730781414248467 0.1448842323941825
H 1.5604441350381049 -1.6424862718673499 -0.1602724578831987
H 0.9811627026900981 -0.9122903299302051 1.34663865168599
*
