! pbe def2-sv(p) def2/J RI DEFGRID1 loosescf d4 GCP(DFT/SV(P)) printgap
%output
    printlevel normal
end
* xyz 0 1
C -2.2082563123 -0.9803807518 -0.4426191692
C -1.1772103065 -0.2192159282 0.3988538831
H -1.691481425 0.18897855 1.2759772897
C -0.584267941 0.9381598438 -0.4130454969
H -0.4368586799 0.6141356851 -1.4584123981
C 0.783904362 1.3109532335 0.1779416216
H 0.6893117779 1.4714142919 1.2572590987
C 1.7472090832 0.1455082569 -0.0600498561
H 2.0420765039 0.1414082505 -1.1202836802
C 1.0181855885 -1.1999910734 0.2039776953
H 1.6481597613 -1.8121909694 0.8667251437
O -0.1681773391 -1.0665533068 0.9389416606
O 0.8252319654 -1.8228281677 -1.0305304313
O 2.8621641895 0.3183451639 0.7729893202
O 1.2349126042 2.5304976415 -0.3478305887
O -1.4721262462 2.0243859732 -0.385724874
O -2.8892333929 -1.9043615964 0.3736671734
H -1.6963241614 -1.4887898944 -1.2690158083
H -2.8969932663 -0.2292214449 -0.8492192823
H 0.5125578421 -2.7308080682 -0.8949683205
H 3.5813383816 -0.2707257517 0.5024833016
H 1.5515694878 2.4056514651 -1.2553790576
H -0.9441313539 2.8417789833 -0.4054269524
H -3.5838123536 -2.3342027505 -0.1453470694
*
