! wb97x-v def2-tzvp def2/J RIJCOSX DEFGRID2 scfconv7 GCP(DFT/TZ) printgap
%output
    printlevel normal
end
%cpcm
    smd true
    smdsolvent "water"
end
* xyz 0 1
C 1.2462642379984588 1.4655568528844236 -0.3232877084947639
C 0.7132989466142834 0.040891113314395704 -0.4229656886999403
C 1.50077495494619 -0.9127158913403618 0.4963267991038795
C -0.7481563062417381 -0.05560670052387707 -0.03464825273397067
O -1.2501639008822454 0.7207637723174061 0.7738507954594845
C -1.5497288161025293 -1.1491237447992413 -0.6720608932849789
H 0.6702958342905746 2.1515933192237844 -0.9520652053704912
H 1.2030608142387325 1.8279722250564816 0.7080677925125614
H 2.2899081386296096 1.494982425536412 -0.6503768791668417
H 0.807082137105193 -0.3264614938751491 -1.4524992400377779
H 2.557743539609568 -0.9006763760129818 0.21414314536554827
H 1.1391172563133507 -1.9425369858245791 0.42335231940755824
H 1.4190313129758565 -0.5873996790760206 1.5388556619484153
H -0.9726541596467697 -2.076115578656773 -0.739989602733376
H -1.76983228598423 -0.8404395838662881 -1.702568047570447
H -2.4884073669110474 -1.314306345432264 -0.14061177822074825
*
