! pbe def2-sv(p) def2/J RI DEFGRID1 loosescf d4 GCP(DFT/SV(P)) printgap
%output
    printlevel normal
end
* xyz 0 1
C -2.0290632111 -0.5755260058 -0.6711337218
C -1.2069317524 -0.0714636034 0.5405455257
H -1.8570123461 -0.0043627219 1.4204253179
C -0.6163009395 1.3297369677 0.2908627505
H -1.3450721161 1.9086556141 -0.2872225585
C 0.708348021 1.2874630048 -0.5090739423
H 1.1694106072 2.2786224998 -0.4050104049
C 1.6604896254 0.242971377 0.0955471939
H 2.5212552 0.1279028115 -0.577758917
C 0.9339167978 -1.1146684657 0.1830252358
H 1.5531742559 -1.8347430454 0.7459565715
O -0.2324231508 -1.0329723249 0.9455632997
O 0.7212324347 -1.5752193066 -1.1206771977
O 2.0526027594 0.6935928823 1.3667669124
O 0.5110453999 1.0768404912 -1.8829063082
O -0.4438257572 2.0288694061 1.4992874209
O -2.1031456367 -1.9806315555 -0.7093871213
H -1.5603686745 -0.2741911315 -1.6086381459
H -3.0274485763 -0.1262967074 -0.6253650387
H 0.0018888661 -2.2334296852 -1.1161540244
H 2.7325270822 0.1125551854 1.7371995401
H 0.5459302371 0.1180281042 -2.0566628523
H 0.3367415919 1.670773615 1.9553473401
H -2.546302479 -2.3014966156 0.0888456589
*
