! pbe def2-sv(p) def2/J RI DEFGRID1 loosescf d4 GCP(DFT/SV(P)) printgap
%output
    printlevel normal
end
* xyz 0 1
C -2.4185498128 -0.679240049 0.014713663
C -0.9759459286 -0.2816376795 0.3482249953
H -0.9120636881 0.0102699819 1.4069860292
C -0.51827302 0.9014563482 -0.5136258171
H -0.5044559696 0.5706899327 -1.5636497029
C 0.9129596964 1.3262568699 -0.1108964485
H 0.8275850924 2.1329892709 0.6262893615
C 1.6900022156 0.1527048221 0.5289319155
H 2.7513700771 0.269433025 0.2698909474
C 1.212482866 -1.1619793728 -0.0993380417
H 1.747854295 -2.0061743901 0.3609637197
O -0.1446840428 -1.4181363998 0.1325525798
O 1.4936394578 -1.0775768346 -1.4672829621
O 1.5139858905 0.0589208023 1.917638031
O 1.6167752966 1.8726107152 -1.1975534657
O -1.4340801065 1.9548107943 -0.3454441028
O -2.9357081957 -1.6759831339 0.8561719812
H -2.4524027908 -1.0985403812 -0.992605607
H -3.0323890917 0.2289153756 0.0520806602
H 1.2597401375 -1.9123663976 -1.9010231529
H 1.9979541748 0.7732002482 2.3580463184
H 1.7879796482 1.1682566794 -1.8423199994
H -1.1624777011 2.6996036129 -0.9022848908
H -2.8938995395 -1.3758848025 1.7750649078
*
