! pbe def2-sv(p) def2/J RI DEFGRID1 loosescf d4 GCP(DFT/SV(P)) printgap
%output
    printlevel normal
end
* xyz 0 1
C 1.3856669931 -1.2052290493 0.1662476613
C 0.430770477 -0.1387465087 -0.3696634893
C 0.9295407813 1.2558666062 0.0153782544
C -0.9690282553 -0.3929374551 0.126866403
C -1.9852153425 0.4445902769 0.0319572407
H 1.4255195784 -1.1629935708 1.252870846
H 2.3899074012 -1.046955969 -0.2201191898
H 1.0571481423 -2.1987819545 -0.1305182049
H 0.4183441873 -0.2069695474 -1.465505511
H 0.9060536441 1.3770351034 1.0962154439
H 1.9520751204 1.3952103089 -0.3274905772
H 0.3118950328 2.0291228131 -0.4316586136
H -1.1241442513 -1.3598490572 0.5883253152
H -2.9616512392 0.1924465955 0.4096460541
H -1.8934342097 1.4161506436 -0.4236490736
*
