! pbe def2-sv(p) def2/J RI DEFGRID1 loosescf d4 GCP(DFT/SV(P)) printgap
%output
    printlevel normal
end
* xyz 0 1
C -1.8337310417 -1.0644152139 -0.6353605391
C -1.0366630888 -0.4890724173 0.5525216565
H -1.6607076827 -0.5665649337 1.4525870495
C -0.7066172144 1.0010672486 0.3621479058
H -1.5536468384 1.4668118892 -0.1538458041
C 0.5735145799 1.2427464321 -0.4728820514
H 0.832386024 2.3020808173 -0.3396663733
C 1.715619528 0.3656390599 0.0686980407
H 2.5610336334 0.4108810902 -0.6306145613
C 1.2631655024 -1.1041660021 0.1261723059
H 2.0200213027 -1.6720790431 0.686766511
O 0.0963564649 -1.2957115801 0.8741690552
O 1.1479205062 -1.562939 -1.18938119
O 2.1010401852 0.7365295335 1.3703068545
O 0.3928390244 1.0624579909 -1.8536922391
O -0.5976320094 1.6561620973 1.6051202622
O -3.1045888936 -0.4773026349 -0.7501327356
H -1.9106185034 -2.151286567 -0.5025135959
H -1.3297840538 -0.8548498705 -1.5794044099
H 1.0364936138 -2.5253242091 -1.2034207179
H 2.6380177047 1.541477328 1.3344371208
H 0.5509542111 0.1297364543 -2.0745417633
H 0.1766124364 1.2949222664 2.0707436652
H -3.6367120792 -0.693525302 0.0288782022
*
