  5
        -20.40806435
 C         -0.8625376652        0.0000518019       -0.0000316533
 F         -1.3186498482       -0.5058610427        1.1304019015
 F         -1.3196942064        1.2316449465       -0.1271053276
 F         -1.3191683392       -0.7261911683       -1.0030071637
 Br         1.0706176616        0.0000890473       -0.0000640541
