! wb97x-v def2-tzvp def2/J RIJCOSX DEFGRID2 scfconv7 GCP(DFT/TZ) printgap
%output
    printlevel normal
end
%cpcm
    smd true
    smdsolvent "water"
end
* xyz 0 1
C 2.44066722444836 0.03352978964647542 0.0002987186976013459
C 0.9422521094921151 -0.008326006001879304 -0.00019478149092679953
C 0.24255811604585298 -1.2171058683980434 -5.469663293402283e-05
C -1.1454994771810907 -1.202272569894659 0.00017724470891190773
C -1.8013441236953973 0.023702662628055825 0.00017612668098630654
N -1.157744437498091 1.1988785962001396 -0.00013367403328289184
C 0.18345551383114783 1.1622343792135628 -0.00031048133015986796
H 2.806597809823934 1.0630600051892711 -0.007724289304426907
H 2.8438909594421924 -0.4687752325904324 0.885936075369405
H 2.8450695950017875 -0.48335340951195094 -0.8762900959189521
H 0.7853818640885012 -2.158517606624854 -5.799121471819097e-05
H -1.7154572680360736 -2.125460365855986 0.00026630814806990967
H -2.888279507021217 0.06477030510976628 0.0002828673184747845
H 0.6898327793787288 2.126462215150286 -0.0007212143885875567
*
