! pbe def2-sv(p) def2/J RI DEFGRID1 loosescf d4 GCP(DFT/SV(P)) printgap
%output
    printlevel normal
end
* xyz 0 1
C -2.2155590126 -0.0822321672 -0.6611196904
C -1.4096410634 0.2176841414 0.5935987593
O -0.1117393113 0.7375873151 0.2632577311
C 0.8780138662 -0.1192589334 0.0375003524
O 0.7552092005 -1.3239005802 0.1256106401
C 2.145501905 0.5894077479 -0.3345854459
H -3.2123052141 -0.4059299642 -0.3799025364
H -2.2877468347 0.8075919346 -1.2806276162
H -1.7353602005 -0.8742152178 -1.2315837012
H -1.280073492 -0.6879226364 1.1942457125
H -1.8778307715 1.003081533 1.187697595
H 2.0810124609 1.6354056742 -0.0553725225
H 2.2803010486 0.5089301918 -1.4111725165
H 2.9877129193 0.1034117184 0.1487551006
*
