! pbe def2-sv(p) def2/J RI DEFGRID1 loosescf d4 GCP(DFT/SV(P)) printgap
%output
    printlevel normal
end
* xyz 0 1
C 3.6879042958 0.3738251577 0.0481831581
C 2.213296804 0.3081467167 -0.3405618008
H 2.1350699784 0.3681386171 -1.4324889286
C 1.4289770902 1.4712451957 0.2646194949
C -0.0419606282 1.3894999899 -0.1305726096
C -0.6673198162 0.0786500073 0.3467222302
H -0.5406302726 0.004270669 1.4331386814
C 0.1084500177 -1.1015438232 -0.2583441336
H 0.0132548043 -1.071581708 -1.3562357724
C 1.5913553274 -1.0106457142 0.115517139
O -0.4624393859 -2.3060157296 0.2272994375
C -2.1807810979 -0.030639034 0.0677199465
C -2.9812919202 0.8428896728 1.0330417706
C -2.5653964612 0.3069492013 -1.3718860017
H 4.1283450536 1.3083429939 -0.2905048053
H 3.7974114056 0.3140515273 1.128700219
H 4.2397574713 -0.4492351084 -0.3994327504
H 1.5189817303 1.4392859873 1.3527203277
H 1.8499139566 2.4181141664 -0.0793029951
H -0.5834909989 2.2308088425 0.3025466191
H -0.1193184166 1.4565259462 -1.2168800349
H 1.6775946399 -1.101631776 1.2010626841
H 2.1306750888 -1.8476316439 -0.335938224
H 0.0448103501 -3.0548806097 -0.1125847363
H -2.4488618166 -1.075742321 0.2574234607
H -4.0465660537 0.688741401 0.8787295237
H -2.7652689032 1.8965583947 0.8735520142
H -2.7456438402 0.5929125148 2.0647291944
H -2.4202602177 1.3649361276 -1.5747533858
H -3.6151939101 0.0726474889 -1.5330981439
H -1.9792993641 -0.270945157 -2.0815573448
*
