! pbe def2-sv(p) def2/J RI DEFGRID1 loosescf d4 GCP(DFT/SV(P)) printgap
%output
    printlevel normal
end
* xyz 0 1
C -2.5316745759 -0.7569137482 -0.3678465222
C -1.1537579112 -0.3557415889 0.1600792714
H -1.2006925157 -0.3197896067 1.2614524212
C -0.7028438188 1.0101004341 -0.3811441479
H -0.6617763295 0.9627406177 -1.4747895737
C 0.7001743127 1.3217897738 0.157720318
H 0.6444729348 1.442972935 1.254227769
C 1.6761624116 0.1746752616 -0.1371331986
H 1.8690385952 0.1348350325 -1.2184195202
C 1.0702938568 -1.1742123868 0.2809489738
H 1.0366395 -1.2041296608 1.3908806755
O -0.2293278347 -1.350404008 -0.2344875328
O 1.8600376547 -2.1818640441 -0.2263885965
O 2.8704332535 0.338482502 0.5798035602
O 1.2286504939 2.4911677178 -0.4209409361
O -1.5991054806 2.0466689608 -0.0770287571
O -3.1516420764 -1.5937361584 0.5812631579
H -2.3862160617 -1.2746474241 -1.3216927671
H -3.1227267498 0.1537411226 -0.5268509904
H 1.4239566792 -3.0375137877 -0.0839460551
H 3.2790698449 1.1735769597 0.3036196364
H 0.5273608881 3.1597814985 -0.4664656461
H -1.747132281 2.0844862356 0.880225689
H -3.9819091175 -1.930661473 0.216315158
*
