! wb97x-v def2-tzvp def2/J RIJCOSX DEFGRID2 scfconv7 GCP(DFT/TZ) printgap
%output
    printlevel normal
end
%cpcm
    smd true
    smdsolvent "water"
end
* xyz 0 1
C -1.07867035500263 -1.877419382785828 8.204604122856005e-06
C 0.2566727653554073 -1.4951831855909559 2.2442714459337378e-05
C 0.5355118836783491 -0.13198779723424328 4.028163828848899e-05
C -0.449500681105367 0.8477347740469975 0.0001019538575640545
C -1.7779611125819565 0.4338627080556054 7.906497408125838e-05
C -2.0945666752611776 -0.9279136956789095 -1.2655594351909546e-05
O -2.7354613321828736 1.4093836962482087 5.802988803122584e-05
N 1.9368626301623308 0.2993229682952452 -6.414451312654252e-05
O 2.813037018335751 -0.5644721328126417 -9.06481073168731e-05
O 2.177784055057438 1.5057260470098894 2.856631606705524e-05
H -1.3343679007789444 -2.9312265290524744 -3.0952257098011586e-05
H 1.0528278398754771 -2.227162678186794 5.388252789029472e-05
H -0.20095548280869904 1.9011409526111114 0.00017756141977912665
H -3.1362858204643334 -1.235326721688865 -0.00011647252618507117
H -3.6134187151783834 1.0010371784126322 -2.532011068980048e-05
*
