! wb97x-v def2-tzvp def2/J RIJCOSX DEFGRID2 scfconv7 GCP(DFT/TZ) printgap
%output
    printlevel normal
end
%cpcm
    smd true
    smdsolvent "water"
end
* xyz 0 1
C -2.5766611293653052 -0.6912916379788935 -0.2709893213546664
C -1.2069109684486328 -0.2948602597743918 0.2393822868601629
H -1.2120439718478901 -0.26190822465888863 1.3410918730157844
C -0.7436227114638363 1.0603204448130361 -0.3078481026928325
H -0.7778084001975352 1.0409575983906771 -1.4066874637290356
C 0.6848081535099196 1.3236303994308087 0.15054167391337608
H 0.6801861220676682 1.4402981491902913 1.2464497487026964
C 1.6012814196038265 0.16252519436999444 -0.21032553038077254
H 1.6719521462356315 0.0835576097572578 -1.308085683264638
C 1.0222931282981524 -1.144442835472411 0.3248300734767763
H 0.9819051664358275 -1.1322363144302405 1.4239407088479288
O -0.29431335585105756 -1.31637176610618 -0.20686679882862952
O 1.784750160447023 -2.2638194906467675 -0.03715457926886077
O 2.897613469011273 0.32800079686826683 0.36668886811304974
O 1.2328378215968105 2.49528200449599 -0.46397089246670126
O -1.5460980849465649 2.133137185047701 0.20135043217808934
O -3.0372941225047687 -1.9140258907989776 0.3155125562638975
H -2.5465197474418004 -0.7707183555105761 -1.3675377281037764
H -3.3031554682117403 0.07842847278626326 0.003381285098856297
H 1.9746877157199552 -2.209581850599367 -0.9862493488392913
H 3.2301910644089906 1.1890896990163011 0.0788705365346213
H 0.7250503905407994 3.2522564471438664 -0.14251477409469201
H -2.3318719005143684 2.2107434821515417 -0.35415924718652336
H -2.413098008088011 -2.6055136104983108 0.05822739256508499
*
