! wb97x-v def2-tzvp def2/J RIJCOSX DEFGRID2 scfconv7 GCP(DFT/TZ) printgap
%output
    printlevel normal
end
* xyz 0 1
C -2.9762316071536064 1.2639054270847732 -0.0009674925659383868
C -1.7494210923321207 0.39455182928105154 0.0007166710269943947
C -1.8402963379516863 -0.9939953799384664 0.0007196555309836347
C -0.6882774701726141 -1.7852070471767447 7.233783431812465e-05
C 0.5651163614705986 -1.1958909906601294 -0.00041443698222156874
C 0.6750106912442569 0.2075559747991551 -0.0001920589137868166
C -0.4764665877274625 0.9863311229686629 0.0004242900849115096
O 1.9567265524422568 0.6956387841620632 -0.00023824086459138443
C 2.1097042001955537 2.123148005246317 0.000450793608493725
O 1.741472782812443 -1.9156421537665862 -0.0007129455531888746
H -2.9912868874478753 1.9307124901580093 0.8681883540772815
H -3.0107124807803465 1.899454209691167 -0.892902155815724
H -3.885707251923706 0.6583288088022218 0.019186380254993793
H -2.814435961331583 -1.4734719734878317 0.0012474027350386045
H -0.7622116062490738 -2.8696100898762364 0.0002640329630247972
H -0.40013511046644756 2.0678964833285294 0.0006972257073869847
H 1.6633002858933617 2.565519688576689 0.8981341032969785
H 1.6626647151292069 2.5664878495918186 -0.8964324079413825
H 3.1852883611858123 2.3028482525964344 0.00016221236291355954
H 1.5219593318104465 -2.857408762231219 -0.0006474945776989556
*
