! pbe def2-sv(p) def2/J RI DEFGRID1 loosescf d4 GCP(DFT/SV(P)) printgap
%output
    printlevel normal
end
* xyz 0 1
C -2.2819960979 -1.0755995897 -0.1830299643
C -0.9011555341 -0.5592650347 0.2201342978
H -0.7754766584 -0.6522238764 1.3096786316
C -0.7306656152 0.9271269096 -0.1517208501
H -1.2197509914 1.11555348 -1.1198336242
C 0.75938492 1.2627310667 -0.3446706781
H 0.9069913213 2.2859981715 0.0393304503
C 1.643457264 0.2964280175 0.4620049953
H 2.7032580844 0.4942625403 0.23560556
C 1.3754873619 -1.1554040236 0.0216349745
H 1.5410397782 -1.801570268 0.910632715
O 0.05974738 -1.3584315652 -0.4421569615
O 2.2541716012 -1.4763703139 -0.9959173385
O 1.4109413198 0.3753167291 1.8434754026
O 1.0349001768 1.2083391755 -1.7194079345
O -1.2510880213 1.7712008185 0.8416815338
O -3.2504364257 -0.2634880211 0.4387752618
H -2.3721707704 -2.1208453586 0.1338918887
H -2.3603038881 -1.0265226295 -1.2758966896
H 1.929271069 -2.2639370487 -1.4595066864
H 1.4808506751 1.2961127612 2.1364459618
H 1.9875175804 1.2918634619 -1.8710605332
H -2.1718294391 1.5077229305 1.004303572
H -4.1340467971 -0.5766369729 0.1987733451
*
