! pbe def2-sv(p) def2/J RI DEFGRID1 loosescf d4 GCP(DFT/SV(P)) printgap
%output
    printlevel normal
end
* xyz 0 1
C -3.1823089029 -0.1755281736 0.0065381271
O -1.9635363522 -0.8900687993 -0.0041999039
C -0.7891104091 -0.1808976435 -0.0018387585
C -0.7004868653 1.2059020483 0.0032069286
C 0.5542434107 1.797419128 0.0008296761
C 1.7051307148 1.0412365934 -0.0071854253
C 1.6261677162 -0.3563843122 -0.0109842838
C 0.3675051354 -0.9516075057 -0.0113469279
N 2.7635523155 -1.1239870932 0.0535988331
H -3.281472467 0.4521468246 -0.8834955367
H -3.27186189 0.4414400079 0.9049042256
H -3.9604258823 -0.9357757711 0.006154527
H -1.5812773192 1.8263113013 0.0077800007
H 0.6243408187 2.8752709704 0.0023291561
H 2.672650646 1.5198645692 -0.0081344922
H 0.2663232666 -2.026115898 -0.0153067223
H 3.6198822037 -0.6790062277 -0.2307664911
H 2.6676429352 -2.0890245461 -0.2140136144
*
