! wb97x-v def2-tzvp def2/J RIJCOSX DEFGRID2 scfconv7 GCP(DFT/TZ) printgap
%output
    printlevel normal
end
* xyz 0 1
C -1.1213129251820189 -1.3729430927040434 -0.43918520496126845
C -0.7067001989795334 -0.18078571906674634 0.41580503727021434
C -1.565913905023084 1.0437292457593141 0.20087645164588763
N 0.7521522894309107 0.11455530610529785 0.06621653105141583
O 0.9995049150975983 0.9996830297818246 -0.742744880544804
O 1.6072016387082377 -0.5930381659673253 0.589630130307449
H -0.48047856900441244 -2.2380438371296583 -0.2538471010362952
H -2.1485977438454005 -1.6368742392318107 -0.17571972234500413
H -1.089747373207598 -1.113007954515374 -1.5012984047580458
H -0.6643673589277832 -0.46600885083094673 1.4698566257530297
H -2.5708519936928855 0.8101400641267977 0.5637792117713809
H -1.6341637432267142 1.3038966113759947 -0.857946255090773
H -1.189460102975764 1.9028334713203265 0.7621318967575074
*
