! r2scan-3c def2/J RI DEFGRID2 scfconv6 printgap
%output
    printlevel normal
end
%cpcm
    smd true
    smdsolvent "water"
end
* xyz 0 1
C -0.5290824286 1.4138132095 -0.0001071224
N -0.4148624084 -0.0279704446 0.0004435871
C -1.6566837817 -0.7617329559 -9.68577e-05
C 0.7718821661 -0.6183868886 -0.0001450643
O 1.857747873 -0.0490873298 1.02239e-05
H -1.0611987719 1.7460724288 -0.8916894046
H 0.4743120867 1.8347199011 0.0043037439
H -1.0693389835 1.7460760865 0.8865019996
H -2.2389316602 -0.5025869603 -0.8854654507
H -2.2369519986 -0.5076864953 0.8880434667
H -1.4566351295 -1.8300400941 -0.0034292181
H 0.7131240559 -1.7201807784 -0.0004324174
*
