! pbe def2-sv(p) def2/J RI DEFGRID1 loosescf d4 GCP(DFT/SV(P)) printgap
%output
    printlevel normal
end
* xyz 0 1
C -2.4504916823 -0.5809772077 -0.0509339651
C -1.0011358632 -0.2227655726 0.2867358402
H -0.8853776082 -0.1743598385 1.377275496
C -0.6112340768 1.1305245448 -0.3210070034
H -0.8944399585 1.1210495369 -1.3832559142
C 0.9241382832 1.3305315883 -0.2694783554
H 1.1154172833 2.2921131 0.2280103924
C 1.6222955998 0.2151583465 0.5363829237
H 2.7077604778 0.2730399263 0.3585885653
C 1.1911095565 -1.165993583 0.0033200749
H 1.4721296683 -1.9265346901 0.7485168775
O -0.1926793568 -1.2598865729 -0.2492186603
O 1.8766742126 -1.4931744484 -1.156385074
O 1.3467871733 0.2702700477 1.9111843664
O 1.39604003 1.3475562057 -1.5982884123
O -1.3008125285 2.1312087906 0.3812849226
O -2.877356021 -1.7471330163 0.6024492813
H -2.5393239247 -0.6950899162 -1.1393552104
H -3.1019034854 0.2251014023 0.2895015248
H 1.6035707926 -0.8825921033 -1.8646898837
H 1.7225529476 1.0767230939 2.2949992413
H 2.296218375 1.702815046 -1.6300890388
H -1.3057780803 2.9521462833 -0.132246552
H -2.2611809533 -2.4595159696 0.3777394867
*
