! pbe def2-sv(p) def2/J RI DEFGRID1 loosescf d4 GCP(DFT/SV(P)) printgap
%output
    printlevel normal
end
* xyz 0 1
C -2.1874147728 -0.9192801025 -0.177184874
C -1.1337586739 -0.3566985662 0.7911017723
H -1.6093910294 -0.3478465937 1.7803206257
C -0.7331909325 1.1055630409 0.493082104
H -1.5873411445 1.603751985 0.021267694
C 0.4820789951 1.2489756646 -0.4455397871
H 0.8608835777 2.272198621 -0.3231710737
C 1.6059049912 0.2909858791 -0.0048671457
H 2.3751001767 0.2908770409 -0.7887987422
C 1.0791560728 -1.1481787239 0.1273087014
H 1.8342584365 -1.7588024539 0.6539212276
O -0.0332504028 -1.2456790504 0.9786164624
O 0.8575592704 -1.6413253655 -1.1527278576
O 2.1055096767 0.7643991906 1.2220240671
O 0.1691631151 1.1199881544 -1.8000376612
O -0.5074217654 1.8034560237 1.6967533484
O -1.7632162785 -0.852817311 -1.5199237647
H -3.1030379082 -0.3346543581 -0.0314762436
H -2.3771757869 -1.9609509293 0.1120512271
H 0.548577618 -2.5585296827 -1.1098648148
H 2.9022425361 0.2757289774 1.4738609254
H -0.2908391297 0.2697691009 -1.9403151236
H 0.3628244808 1.5453260691 2.0437918275
H -2.4922994008 -1.1097646891 -2.1009841437
*
