! wb97x-v def2-tzvp def2/J RIJCOSX DEFGRID2 scfconv7 GCP(DFT/TZ) printgap
%output
    printlevel normal
end
%cpcm
    smd true
    smdsolvent "water"
end
* xyz 0 1
C -3.1006144777347253 0.3800329025613276 -0.0008041094816381691
C -1.6348221382320587 0.042590447062645594 0.0005047089636647374
C -1.189922996376885 -1.2801371191283644 0.0004043450334131775
C 0.17044155918717432 -1.5782957649334353 -2.4698150991955246e-05
C 1.1045367102538903 -0.5487248801448402 -0.00028084921222191355
C 0.6988464471314744 0.7948740938587988 6.385531590233227e-05
C -0.6712662252847541 1.0571015036089153 0.00048618826571358815
C 1.7133359299370519 1.9024286018937027 0.0002307455257593786
O 2.4402295862547194 -0.9068485401887955 -0.0005850978030068382
H -3.712245217531974 -0.5257287933116163 0.015903909002019403
H -3.369571956266205 0.9873788050804717 0.870423087393167
H -3.3748427594123576 0.9574100683712041 -0.8907327468597374
H -1.9118168172957266 -2.092097651439559 0.000733800780620549
H 0.5152055658959863 -2.607821733068963 6.113591209520388e-05
H -0.9961124532331962 2.095555222865851 0.0008376510320809053
H 2.361778898865935 1.857062305261163 -0.8842461864215574
H 1.2179151874539196 2.8754453998983105 0.001779675384699047
H 2.363614795569194 1.8551775430233615 0.8832557045334761
H 2.98606767352309 -0.10896430426919831 -0.0006586978035446431
*
