! wb97x-v def2-tzvp def2/J RIJCOSX DEFGRID2 scfconv7 GCP(DFT/TZ) printgap
%output
    printlevel normal
end
%cpcm
    smd true
    smdsolvent "water"
end
* xyz 0 1
C -2.584197933953319 -0.6545758853556077 -0.3245331297800731
C -1.2128034873613784 -0.2896397455737745 0.20443690607594422
H -1.2331430542326562 -0.2639654596691355 1.3074442505801127
C -0.7180128234689318 1.057192285921743 -0.3300324063414067
H -0.7514229691056461 1.045350312182782 -1.4263451083775693
C 0.7197405315784225 1.3091430922579839 0.12835086460898526
H 0.71383930723343 1.4284707857158168 1.2257900284527574
C 1.6179374109669056 0.1371394201639318 -0.22203684689779865
H 1.704763590471567 0.050836885738236505 -1.3161356901103731
C 1.00039887014799 -1.1537515131143568 0.31234860661502895
H 0.933316612397366 -1.1256405264933773 1.4124461523502367
O -0.3110843931920435 -1.321784941078041 -0.23648724059204582
O 1.7921839471553835 -2.2267912097914304 -0.12258363107810544
O 2.897759700646629 0.3683001243915024 0.3714075820419846
O 1.2577770621287168 2.4826347185602677 -0.48753030693216187
O -1.562557076186946 2.1381899639263 0.07787654428976894
O -3.0794075483850025 -1.867136191164819 0.2563242551988466
H -2.5415641028344096 -0.7356079714736219 -1.4203522871746628
H -3.2941010882012374 0.13251901545515707 -0.06007673013355583
H 1.6150985179104047 -2.9864921992314044 0.4485575897059039
H 3.490648426888607 -0.32590857534277345 0.05353149174441972
H 0.6705206090651928 3.215156281787521 -0.2543445757751822
H -1.5674699228905924 2.1585384075588365 1.0464180066422537
H -2.471769877406195 -2.574123220831232 0.0017844118523222755
*
