! pbe def2-sv(p) def2/J RI DEFGRID1 loosescf d4 GCP(DFT/SV(P)) printgap
%output
    printlevel normal
end
* xyz 0 1
C -1.8156162867 -1.0563646993 -0.6657786294
C -1.0383230126 -0.4894087919 0.5328098751
H -1.6944178499 -0.563163426 1.4082207467
C -0.702273021 1.0022218443 0.3453586401
H -1.5385083785 1.4576573635 -0.196019481
C 0.5986955684 1.2362574631 -0.4569499925
H 0.8781908434 2.2863591347 -0.3005987296
C 1.7219762298 0.3479100714 0.0997680677
H 2.5849038494 0.4164159401 -0.5778543579
C 1.2572482549 -1.1223987113 0.1277500688
H 1.9957663547 -1.7244098892 0.6794195992
O 0.0828764862 -1.3018255477 0.8719904167
O 1.1465257687 -1.5610233283 -1.1948268875
O 2.0415497448 0.803682951 1.3888037105
O 0.4409843991 1.0705224482 -1.8419125042
O -0.6388685456 1.6720112322 1.5818880022
O -3.0948487209 -0.4650011675 -0.6610611846
H -1.8904407781 -2.1442899842 -0.5341563567
H -1.292094192 -0.8352574379 -1.6013979596
H 1.0160422013 -2.5209068628 -1.2251559339
H 2.8243667577 0.3456365665 1.7276927331
H 0.6033532837 0.1394249093 -2.0687474846
H 0.190601593 1.4242238303 2.0244805629
H -3.5907022345 -0.7734461615 -1.4326457325
*
