! pbe def2-sv(p) def2/J RI DEFGRID1 loosescf d4 GCP(DFT/SV(P)) printgap
%output
    printlevel normal
end
* xyz 0 1
C -2.4774418995 -0.4918452129 -0.250566712
C -1.0427681893 -0.2081810085 0.1814830421
H -0.9672630202 -0.4100824386 1.2609924019
C -0.6266974254 1.2556831101 -0.0866767276
H -1.1860294761 1.6517742331 -0.9415065695
C 0.8772268099 1.3033978642 -0.4493272626
H 1.2494971974 2.3063574503 -0.2143126106
C 1.6474190301 0.2747027596 0.3995671541
H 2.6997014681 0.2871253835 0.0931061605
C 1.100376227 -1.1446565012 0.0997727411
H 1.0019322716 -1.6924661209 1.0613726634
O -0.174332223 -1.0919422755 -0.5088970757
O 1.9692925265 -1.7822104577 -0.7614346544
O 1.4835787314 0.6256970687 1.751082999
O 1.1037935872 1.1206827474 -1.8193758618
O -0.9390575017 2.0893766437 0.9957980818
O -2.9052432431 -1.6870784851 0.3610969638
H -2.5017614095 -0.5781038374 -1.3427713277
H -3.096349262 0.3551842976 0.0701157709
H 1.590877697 -2.6303947599 -1.0424004565
H 2.1981833491 0.2545054709 2.2871061981
H 0.8487603021 0.217461384 -2.0642661963
H -0.356827064 1.8624882154 1.7391312862
H -3.8022034627 -1.8946414146 0.0635885704
*
