! pbe def2-sv(p) def2/J RI DEFGRID1 loosescf d4 GCP(DFT/SV(P)) printgap
%output
    printlevel normal
end
* xyz 0 1
C -2.1292274789 -1.1806079103 -0.1804127895
C -1.2523616877 -0.334449435 0.752129539
H -1.8323165404 -0.1324665626 1.6589108768
C -0.8987714965 1.0273689063 0.1229931552
H -1.1256142358 1.0162265188 -0.9538013149
C 0.6035220094 1.2843186974 0.2714097479
H 0.8498464007 1.3565384044 1.3438434495
C 1.3584081708 0.1041056589 -0.3539088483
H 1.0588489 0.0164259179 -1.4048711693
C 0.9901113111 -1.2034689646 0.3862756365
H 1.8048107312 -1.4887600307 1.0644466349
O -0.1130204604 -1.0268395621 1.2482116918
O 0.8383143597 -2.2795612532 -0.4742146465
O 2.7409837368 0.3526689903 -0.3881182705
O 0.9173109182 2.4935222602 -0.3758697327
O -1.6690250219 2.0135361223 0.7633036683
O -1.5230743041 -1.309358596 -1.4548483537
H -3.094164191 -0.6726872519 -0.2676749142
H -2.2685454294 -2.1656033465 0.2793079166
H 0.0715315333 -2.1044982538 -1.0619155998
H 3.1133077993 0.3029819103 0.5046908062
H 1.8504832081 2.4646082495 -0.6406563368
H -1.3666986463 2.8819038276 0.4561712403
H -2.1457947076 -1.7397893072 -2.0585778603
*
