! r2scan-3c def2/J RI DEFGRID2 scfconv6 printgap
%output
    printlevel normal
end
%cpcm
    smd true
    smdsolvent "water"
end
* xyz 0 1
C 0.6445830351 -1.4196427372 -2.4243e-06
C 0.5175893869 0.0741657555 -5.0828e-06
C 1.5895357807 0.8663448067 8.4136e-06
C -0.8191120805 0.6555228675 -4.0378e-06
C -1.9622135499 -0.0209321708 9.1606e-06
H 0.1626909655 -1.8382973813 0.8816099091
H 1.690427043 -1.7134588378 -3.01691e-05
H 0.162643293 -1.8383135301 -0.8815802617
H 1.5017856974 1.9398714119 -2.32875e-05
H 2.5904982008 0.4699342116 -1.15239e-05
H -0.8439008126 1.738219397 3.3001e-06
H -2.9119440629 0.4859283009 -6.30578e-05
H -1.999275709 -1.0963448883 2.32454e-05
*
