! pbe def2-sv(p) def2/J RI DEFGRID1 loosescf d4 GCP(DFT/SV(P)) printgap
%output
    printlevel normal
end
* xyz 0 1
C 1.8119050241 -1.1219435527 2.65652e-05
C 2.3061445945 0.1802046902 -5.11153e-05
C 1.4440732814 1.254647107 -2.49573e-05
C 0.0599790654 1.0662338114 1.00109e-05
C -0.4497456052 -0.2483972467 -2.81784e-05
C 0.45395225 -1.3247506519 6.8455e-06
C -1.8674312406 -0.5482189007 -2.57393e-05
O -2.3517629628 -1.6660103259 -4.90596e-05
O -0.6908807539 2.1813310427 6.76848e-05
H 2.488683878 -1.9607898178 3.96655e-05
H 3.3708671131 0.3524290868 0.000350919
H 1.8107263265 2.2685969023 0.0001674166
H 0.031986729 -2.3188393135 0.000163515
H -2.5536316399 0.3201704175 -5.60904e-05
H -1.6428653415 2.0029961519 7.04927e-05
*
