! pbe def2-sv(p) def2/J RI DEFGRID1 loosescf d4 GCP(DFT/SV(P)) printgap
%output
    printlevel normal
end
* xyz 0 1
C -2.4647672095 -0.8554398909 -0.1581990708
C -1.1109446415 -0.5976893142 0.523510833
H -1.1399236267 -1.0023889643 1.5488396081
C -0.755396609 0.9065206092 0.6066854136
H -1.6392944746 1.4944262938 0.33228671
C 0.3636052052 1.2405960532 -0.3964908981
H 0.644053967 2.2918372209 -0.2385450777
C 1.6093198243 0.3792322519 -0.0897129094
H 2.2604487445 0.3495854575 -0.9702815441
C 1.1772985557 -1.0766297386 0.2436734945
H 1.2368879001 -1.2140590669 1.3377478079
O -0.1334007102 -1.3223340637 -0.2055670872
O 2.0074985252 -2.0307637091 -0.315955158
O 2.3865401519 0.9466954111 0.9307471636
O -0.1276034211 1.0371000462 -1.6953537234
O -0.277946903 1.2640501109 1.8845711645
O -2.7587666182 0.033966315 -1.2021646253
H -3.2715436513 -0.7388420607 0.568061439
H -2.4532853114 -1.891883498 -0.5197570753
H 1.7442101731 -2.173473652 -1.2387846856
H 1.8124630968 1.1312412706 1.6927639618
H 0.4735351224 1.4351949389 -2.3404137274
H -1.0170527131 1.3791636723 2.4974863246
H -1.9810581817 0.1114271045 -1.7788714159
*
