! r2scan-3c def2/J RI DEFGRID2 scfconv6 printgap
%output
    printlevel normal
end
* xyz 0 1
C -3.3801861105 -0.4130383042 0.0340264332
O -2.1843165882 0.0047412661 -0.6308947339
C -1.0535495985 0.0710725292 0.0702919312
O -0.996057732 -0.1894201373 1.252776031
C 0.0907884797 0.4849864815 -0.8263495954
C 0.8953633448 -0.7631702016 -1.2309126961
C 1.6967071571 -1.3211744226 -0.0597312825
C 2.6397231057 -0.2554213039 0.4893531117
C 1.8355631366 0.9498751112 0.9649801071
C 1.0078380565 1.529512061 -0.178577858
H -3.3086683036 -0.1925625791 1.0998315049
H -3.5127601878 -1.4851071878 -0.1108164739
H -4.1957164861 0.1375311368 -0.4264437679
H -0.3678973167 0.9091095444 -1.7249171228
H 0.2163193106 -1.5229552687 -1.623777076
H 1.580615251 -0.4750522257 -2.0300748669
H 1.0160890014 -1.6393866466 0.7329543353
H 2.2632577639 -2.1935739522 -0.3899711562
H 3.2201301064 -0.6635343697 1.3181670477
H 3.3364397331 0.053496935 -0.2933767422
H 1.1693563828 0.6426729486 1.7724235296
H 2.5047171562 1.7203212889 1.3522134189
H 0.4072435607 2.3652913916 0.1860495085
H 1.6794615054 1.9071368837 -0.9522346764
*
