! pbe def2-sv(p) def2/J RI DEFGRID1 loosescf d4 GCP(DFT/SV(P)) printgap
%output
    printlevel normal
end
* xyz 0 1
C -3.5271227117 0.2017740423 -0.4068015512
C -2.0489189561 -0.1517682709 -0.5496196015
H -1.869334463 -0.4505214424 -1.5876629658
C -1.6634200606 -1.3269658403 0.3440828339
C -0.2067559055 -1.683631363 0.0804859992
C 0.7318587495 -0.5631734342 0.538714211
H 1.0235894492 -0.7464048183 1.5796716654
C 0.0980928823 0.8091782859 0.5467277336
O 0.6166851239 1.7223567482 1.1690323724
C -1.1746882353 1.0653901251 -0.2171944393
C 2.0435129849 -0.5432777216 -0.2925757343
C 1.8497995609 0.1367732054 -1.6465145141
C 3.1740809392 0.1322789232 0.4780631714
H -3.7825276152 1.0431951038 -1.046099512
H -4.1472899381 -0.6453616718 -0.6892016803
H -3.7573597632 0.4665485838 0.622966907
H -1.8009015652 -1.0579995281 1.3938366579
H -2.3026695922 -2.1831422209 0.1252059805
H 0.0621519944 -2.603179517 0.6020736377
H -0.0817617299 -1.8648413057 -0.9882575105
H -1.7402415161 1.7917204654 0.3729591257
H -0.8817543783 1.5857052369 -1.1330173666
H 2.3185699097 -1.589944456 -0.4630910566
H 2.7331155668 -0.0070389734 -2.263884549
H 1.7004848971 1.2065011319 -1.5128185944
H 0.9936000977 -0.2720352837 -2.1762130055
H 3.4078115727 -0.420862346 1.3848556711
H 2.8876732388 1.1437449694 0.7590404346
H 4.0701568879 0.1843780839 -0.135501146
*
