! wb97x-v def2-tzvp def2/J RIJCOSX DEFGRID2 scfconv7 GCP(DFT/TZ) printgap
%output
    printlevel normal
end
* xyz 0 1
C -1.2708711563851822 -0.9504230830637639 -0.18193317021819544
C -0.4019120179004052 0.2997553826833312 -0.3156043380376971
C -1.1257035745356176 1.5289871991648771 0.23476304853952787
C 0.926022518166838 0.13955092745269618 0.4082591424807431
O 1.6631816444753964 -0.9525825363811229 -0.1773724929792744
H -0.7780198750941597 -1.8350167061439908 -0.5953212444396698
H -2.2214060379957585 -0.818681489100329 -0.7092328689314877
H -1.4953873582113173 -1.1480242955390492 0.8735299755308106
H -0.18318527179587604 0.4687392863890359 -1.3795493710033424
H -1.334901188342128 1.407961524043028 1.3044892117041342
H -2.0813190491569533 1.677129308100391 -0.2777611000520105
H -0.5283844775625783 2.438076818463554 0.10696040496900074
H 1.5087060471285603 1.0684523435073918 0.32726228232950955
H 0.7422029293926645 -0.058806197825802334 1.475536613056904
H 2.4863158636516944 -1.0414813089470416 0.31814740623873905
*
