! wb97x-v def2-tzvp def2/J RIJCOSX DEFGRID2 scfconv7 GCP(DFT/TZ) printgap
%output
    printlevel normal
end
* xyz 0 1
C 0.9779844191770494 2.1030460090927603 -0.3836373379860111
C 0.34828664484488436 0.8563723758888969 0.20311118244344004
H 0.11311312650054177 0.9891174501150554 1.2609925137396363
C -0.8786121856479899 0.46393459367023765 -0.5804270808336072
Cl -1.7805026613753279 -0.9350530101495138 0.17152349915214393
Cl 1.5814406097864164 -0.5229236215782966 0.16552373801664438
H 0.2648360137894747 2.9300283357543893 -0.3007741091742155
H 1.8817927521672073 2.373037537134841 0.16612856155553316
H 1.2290056012191273 1.9608200122440818 -1.4383348276420584
H -1.5741285672284653 1.3069344748666838 -0.588486169924885
H -0.6350632928657586 0.17450768000623132 -1.6041243907805935
*
