! pbe def2-sv(p) def2/J RI DEFGRID1 loosescf d4 GCP(DFT/SV(P)) printgap
%output
    printlevel normal
end
* xyz 0 1
C -1.6939038306 0.9467149399 -0.3441578691
C -1.042218046 -0.2279252531 0.3795928421
C 0.5069759616 -0.2283666633 0.4439241006
C 1.058831401 -1.5087000009 -0.1851786383
C 1.1689625388 0.9814416126 -0.2146110239
H -2.7742363956 0.8183475492 -0.3336771222
H -1.3713515572 0.9998712232 -1.3799543556
H -1.4630079319 1.8903332358 0.1423353484
H -1.4371757329 -0.2581649057 1.3973075922
H -1.3690147749 -1.1456964582 -0.1136932946
H 0.8019787695 -0.222785234 1.4994000533
H 2.1425242462 -1.542366134 -0.0961597537
H 0.8004335475 -1.5515310501 -1.2412532489
H 0.6486031638 -2.387266586 0.3078251488
H 2.2477141688 0.9154884888 -0.0887439813
H 0.8342364205 1.9102854656 0.2380092034
H 0.95540737 1.0124461733 -1.2796128727
*
