! pbe def2-sv(p) def2/J RI DEFGRID1 loosescf d4 GCP(DFT/SV(P)) printgap
%output
    printlevel normal
end
* xyz 0 1
C -2.0434942472 -0.541397454 -0.6874854134
C -1.1806372437 -0.0978612789 0.5123600598
H -1.8213311373 -0.0524414113 1.4024133838
C -0.6016459271 1.3151202293 0.291387138
H -1.3360798722 1.8936307738 -0.2799201689
C 0.7128188694 1.2834008159 -0.5124410138
H 1.1624655534 2.2793662806 -0.4178602152
C 1.68715538 0.2594332052 0.1032961418
H 2.5654243369 0.1599488226 -0.5522363217
C 1.0047952843 -1.1228536635 0.172844196
H 1.6111801965 -1.8163483786 0.7713943845
O -0.2041238729 -1.0663986184 0.886886132
O 0.9105410438 -1.7042042219 -1.0857415311
O 2.0557041645 0.7345996678 1.373994107
O 0.4310514467 0.964043817 -1.8567231107
O -0.4342293505 2.0055735783 1.5023372814
O -2.4140740776 -1.8939375114 -0.6309071781
H -1.5025675288 -0.4172811966 -1.6262981802
H -2.9326059075 0.1049623059 -0.7131495143
H 0.5231147802 -1.0655404306 -1.710774147
H 2.6924058858 0.1329154486 1.7856238442
H 1.0467876298 1.4201458789 -2.4472187819
H 0.3333707941 1.633133404 1.9697776126
H -2.799528601 -2.0873144785 0.2351246088
*
