! r2scan-3c def2/J RI DEFGRID2 scfconv6 printgap
%output
    printlevel normal
end
%cpcm
    smd true
    smdsolvent "water"
end
* xyz 0 1
C -3.3890729488 0.5451419674 -0.0512373371
C -1.905375859 0.5542313221 0.299775769
H -1.7724587571 0.9704372909 1.3041077332
C -1.0931902016 1.4078022797 -0.6883122801
C 0.3915164964 1.3927676687 -0.3457706252
C 0.9273322316 -0.0426670619 -0.3669037278
H 0.7403988185 -0.4587919755 -1.3634781334
C 0.1425925996 -0.8879563556 0.6528304482
C -1.3218799004 -0.8407869081 0.3120031576
O -1.9652506954 -1.8359777639 0.0420464682
C 2.4160356848 -0.0892165095 -0.115592024
C 3.2590550147 -0.355598066 -1.1016587408
C 2.8944524732 0.189581054 1.2764850111
H -3.5381558892 0.1186784256 -1.040761581
H -3.940681621 -0.0640383059 0.6608226611
H -3.7886550162 1.5552479462 -0.0382764816
H -1.2431952933 1.0168505183 -1.6973761385
H -1.4730795742 2.4301389533 -0.6660886123
H 0.9428030564 1.9927870637 -1.0715083802
H 0.5417324032 1.8319035943 0.6414266014
H 0.486496442 -1.9234655038 0.6371381099
H 0.2821971603 -0.4755974337 1.652211702
H 4.3249508598 -0.3715809407 -0.9502499836
H 2.9203335403 -0.5686053589 -2.1016891329
H 2.6391435305 -0.6385318224 1.9357837104
H 3.9735985332 0.3124162257 1.2877286184
H 2.4363792974 1.0926133276 1.6726541044
*
