! wb97x-v def2-tzvp def2/J RIJCOSX DEFGRID2 scfconv7 GCP(DFT/TZ) printgap
%output
    printlevel normal
end
%cpcm
    smd true
    smdsolvent "water"
end
* xyz 0 1
C 1.8452759194462216 0.9772029346266031 -0.22543012377140723
C 0.9750815974254048 -0.11048002747009657 0.3995871356454035
C -0.3743774392592945 -0.27966345146178373 -0.2934659075869648
H -0.20172861438215178 -0.485078192835868 -1.3619117149475923
C -1.2785649718308556 0.928928740366708 -0.1571141018438419
O -1.094913887156832 -1.399048406884255 0.28375928342477513
H 1.9803731892452296 0.8035626775626634 -1.2989354530517754
H 2.8365758930081078 0.9923772313915392 0.237187489412239
H 1.405060197755796 1.970681129402292 -0.09730774308385019
H 0.7977574071226243 0.10652940303815076 1.4609806543465138
H 1.504668459013885 -1.0711760137586792 0.3501521867215708
H -2.2578518966755627 0.7262691943686568 -0.6013425156091274
H -1.4186628489692317 1.187482774198995 0.8985397425642794
H -0.8485428246998084 1.7923147868116223 -0.6712821696260076
H -0.5191802850192192 -2.1723052434151784 0.21811225900995684
*
