! pbe def2-sv(p) def2/J RI DEFGRID1 loosescf d4 GCP(DFT/SV(P)) printgap
%output
    printlevel normal
end
* xyz 0 1
C 0.658455315 -3.407e-07 1.05517e-05
C -0.6584554103 5.475e-07 3.8107e-06
H 1.2286942687 0.9141934449 -2.76221e-05
H 1.2286901999 -0.914195423 -7.94728e-05
H -1.228694447 -0.9141906916 -6.0991e-06
H -1.2286888865 0.9141902059 -5.79496e-05
*
