! wb97x-v def2-tzvp def2/J RIJCOSX DEFGRID2 scfconv7 GCP(DFT/TZ) printgap
%output
    printlevel normal
end
%cpcm
    smd true
    smdsolvent "water"
end
* xyz 0 1
C -2.5589220015961165 -0.9215996927600795 0.3476631893048682
C -1.1419787109574462 -0.43923332184248476 0.5907913390037295
H -0.9841154493347994 -0.3740330351501793 1.6815488284962665
C -0.83437424588018 0.9196206861913928 -0.04486964015735213
H -1.0456607410125882 0.8754066753665504 -1.1186972708166527
C 0.6366938314805293 1.2614848844189825 0.1699107743175959
H 0.808441934358627 1.4001455121219453 1.2509529262991053
C 1.5415960983408608 0.14081513020170627 -0.32225624260053665
H 1.4369208829780808 0.036188436327683156 -1.413628834089697
C 1.119975924607934 -1.170938859599494 0.3256442919887933
H 1.250511167836345 -1.1241355070450112 1.4195078886320363
O -0.25686642780700264 -1.4266607019933562 0.027825310436215084
O 1.8769401499961926 -2.2108823582511863 -0.23166290896503228
O 2.905167762432978 0.3818852220956792 0.03316633751203261
O 1.0137705043652805 2.447277080664309 -0.5386765492986232
O -1.6747709980336292 1.9511987304687268 0.48239672541522133
O -2.8990857006666437 -0.9915919988411396 -1.0417468804524035
H -3.258089011600983 -0.2194100274666986 0.8087949104108357
H -2.6858687986550347 -1.901192515183956 0.8279401884715574
H 1.8169501206570762 -2.974960475440434 0.3580331055705664
H 3.148583928507709 1.2402141141041192 -0.33938841933920366
H 0.4920135545702647 3.1751319007976595 -0.17424293932372698
H -1.5177130092235975 1.9982959303598948 1.4370347903796614
H -2.3181432629575403 -1.6478042982873558 -1.4488931795566546
*
