! wb97x-v def2-tzvp def2/J RIJCOSX DEFGRID2 scfconv7 GCP(DFT/TZ) printgap
%output
    printlevel normal
end
%cpcm
    smd true
    smdsolvent "water"
end
* xyz 0 1
C 1.8356096626872194 -1.466769119504469 -0.0004580849641639345
C 0.5354471790894976 -0.7144333468497834 0.0002238675707187501
C -0.6773515741488144 -1.4034110276917873 5.314145011657197e-05
C -1.8785255909031622 -0.7059145469014418 7.888896434338198e-05
C -1.8260841489260236 0.6798331731627266 0.00022352126513447323
N -0.6789615355429995 1.3699663287008064 0.0006768034832085206
C 0.48360770218735305 0.6924685854324781 0.0007625297506647384
C 1.7240530436329444 1.5363860613589597 0.00013007389135843612
H 1.6519639197664286 -2.543895750152834 -0.0031559668317889763
H 2.440244356224703 -1.2227539194935186 -0.8804828114599835
H 2.4386663464637555 -1.2270596553248676 0.8818596711521464
H -0.6744169144764525 -2.4899647952491497 -0.0002129831890547051
H -2.831785812720115 -1.223591250129738 -4.7750238531596e-05
H -2.7425437644347888 1.266535919212195 0.00020188846066652638
H 1.730220137208574 2.198020435142619 0.8728224339535801
H 2.637697507223899 0.942612785090181 0.01328392105827941
H 1.7431552752671897 2.1774406743680474 -0.8878425353007598
*
