! r2scan-3c def2/J RI DEFGRID2 scfconv6 printgap
%output
    printlevel normal
end
* xyz 0 1
C -2.5598471207 -0.6501589347 -0.3629250913
C -1.1892722297 -0.2893696228 0.2175614926
H -1.2611647334 -0.2576100548 1.3155287666
C -0.7153334624 1.0823011421 -0.2809462606
H -0.7206640287 1.0852263392 -1.382138276
C 0.7247502195 1.3344233338 0.1885934538
H 0.7210625748 1.4313987771 1.2878974773
C 1.6251339205 0.1548134944 -0.2119202835
H 1.6635372852 0.098788038 -1.3059803342
C 1.0145460393 -1.1490508055 0.3393726205
H 0.9777911072 -1.09479147 1.4420779762
O -0.2891904528 -1.3106877329 -0.1754121888
O 1.7532314106 -2.2710448988 0.0388172456
O 2.9498688682 0.3595563241 0.205487904
O 1.1662631425 2.5380854357 -0.3919887801
O -1.5945270385 2.0548886636 0.2160994154
O -3.0874059439 -1.817905676 0.2069361462
H -2.4613845754 -0.7571381906 -1.450325873
H -3.2579159161 0.1566800647 -0.1367366689
H 1.7187696648 -2.4471485749 -0.9146113103
H 3.0445648374 0.1528130245 1.1465065544
H 2.1318324809 2.583974839 -0.3149285412
H -1.2501416041 2.92880134 -0.0256038467
H -2.4561322955 -2.5389541942 0.0658721799
*
