! pbe def2-sv(p) def2/J RI DEFGRID1 loosescf d4 GCP(DFT/SV(P)) printgap
%output
    printlevel normal
end
* xyz 0 1
C -2.1693264728 0.0067950078 -3.41588e-05
C -0.8774223152 0.8175427558 7.31168e-05
C 0.4266799116 -0.0017235035 1.03416e-05
C 1.6012987913 0.9836481039 1.65188e-05
C 0.5206052785 -0.8801889157 -1.2499067629
C 0.5205937001 -0.8802847619 1.2498529214
H -2.2390476734 -0.6218019528 0.8833859084
H -3.0222023193 0.6821386628 -0.0005262117
H -2.2385289568 -0.6224671508 -0.883021197
H -0.8738798673 1.4652850465 0.8805035229
H -0.8738605398 1.4653628999 -0.8802944727
H 1.5677752905 1.6196927399 -0.8818127562
H 2.5483489958 0.4488237065 -0.0001477727
H 1.5679830634 1.6195032973 0.8819784192
H 0.4005933468 -0.2799114962 -2.1491123498
H 1.4915481189 -1.368839745 -1.2915357163
H -0.244046105 -1.6521575007 -1.2435787719
H 1.4912812967 -1.3694674261 1.2911188733
H -0.2444897036 -1.6518367334 1.2437716491
H 0.4012431397 -0.2799815676 2.1491281468
*
