! pbe def2-sv(p) def2/J RI DEFGRID1 loosescf d4 GCP(DFT/SV(P)) printgap
%output
    printlevel normal
end
* xyz 0 1
C -1.7861909753 -0.0383073016 -0.663019681
C -0.8516518883 -0.0329001486 0.5429793697
C 0.1417220353 -1.1971554809 0.5021602434
C 1.2636100763 -0.7282319093 -0.4331204667
C 1.2208856671 0.8114887222 -0.4067563937
C 0.0754808129 1.1854266265 0.5427432089
H -1.2196962828 -0.0067693911 -1.5892160488
H -2.3984199804 -0.9375344975 -0.6636868755
H -2.447381185 0.8250533711 -0.6336268645
H -1.4575115161 -0.0652087777 1.4532725741
H 0.5388963134 -1.3677480585 1.5040056647
H -0.3197445591 -2.1217601809 0.1583954457
H 2.2303872486 -1.1090598979 -0.1065005701
H 1.0921489844 -1.0965017429 -1.4444338183
H 2.1653714086 1.2338462974 -0.0661424993
H 1.0285431396 1.204095277 -1.4051321543
H 0.4633835619 1.3436878499 1.5501787848
H -0.4369367003 2.0940802994 0.2301170225
*
