  12
        -23.04371942
 C         -0.6918622961       -1.2088455594       -0.0000208194
 C          0.6918711465       -1.2088690923        0.0001023115
 C          1.3680753193       -0.0000395949        0.0001087198
 C          0.6918984015        1.2088077120        0.0000215006
 C         -0.6918276974        1.2088472572        0.0000502018
 C         -1.3680677507        0.0000133331       -0.0000056356
 Br        -3.2819514504        0.0000055517       -0.0000116016
 Br         3.2819364963        0.0000074357       -0.0000238769
 H         -1.2345886525       -2.1404414530       -0.0001929549
 H          1.2346206803       -2.1405085812        0.0000393245
 H          1.2346611619        2.1404344090        0.0000631237
 H         -1.2345458877        2.1405101828       -0.0001508139
