! wb97x-v def2-tzvp def2/J RIJCOSX DEFGRID2 scfconv7 GCP(DFT/TZ) printgap
%output
    printlevel normal
end
* xyz 0 1
C -1.7013642163963403 0.6238980237495589 -0.6276530529196355
C -1.2047433946318513 -0.07481902490394249 0.6317473078387581
C 0.04522000185189111 -0.9401519794239559 0.3816718403087007
C 1.2015286152631595 -0.15781865201805167 -0.025461465779557355
C 2.1448481208395886 0.5224388849288745 -0.3508416184046219
H -1.9636765647176644 -0.10651482748788504 -1.4011060389204253
H -2.5902995533364064 1.2262837698744429 -0.41658133689818533
H -0.9357746874511543 1.2905043584934197 -1.0393854032055412
H -0.9768406143154765 0.6617481146696763 1.410193017340507
H -1.986667730723259 -0.7315048225605477 1.0280393566791297
H -0.17485151359674306 -1.6852317288246166 -0.3935226698839358
H 0.29968236787842845 -1.4966440790597337 1.2914212699447762
H 2.9802082588737226 1.116203045749712 -0.6474921949956213
*
