! pbe def2-sv(p) def2/J RI DEFGRID1 loosescf d4 GCP(DFT/SV(P)) printgap
%output
    printlevel normal
end
* xyz 0 1
C -1.7626108987 -1.0068627299 -0.7008554764
C -1.062141651 -0.4439259283 0.552963578
H -1.7547491815 -0.5334664555 1.3984270061
C -0.6814398151 1.0418137229 0.4189669718
H -1.5138725982 1.5704073547 -0.0565368348
C 0.5700802488 1.2416140159 -0.4551902492
H 0.9174567594 2.2734845324 -0.2827651255
C 1.7028531463 0.3082880051 0.014220285
H 2.4943169737 0.2987975136 -0.7491188548
C 1.2174901583 -1.1451836238 0.1733038503
H 1.9558123501 -1.6968106358 0.7806765746
O 0.0465690696 -1.2535444677 0.9387775115
O 1.1166233354 -1.701822552 -1.0988694334
O 2.1734248409 0.8267891898 1.2334549059
O 0.2139162183 1.0524982883 -1.7970040455
O -0.521655415 1.6499513119 1.676033902
O -3.088582205 -0.5511420992 -0.8260959686
H -1.8346071317 -2.0909033316 -0.5812668391
H -1.1766443749 -0.7767524375 -1.5947711666
H 0.9009100413 -2.6440531631 -1.0361798799
H 2.962180686 0.3470754302 1.5252121083
H 0.9675191425 1.2460701988 -2.3725178597
H 0.3084557924 1.3365438116 2.0718460364
H -3.0911202933 0.359521042 -1.1484652127
*
