! pbe def2-sv(p) def2/J RI DEFGRID1 loosescf d4 GCP(DFT/SV(P)) printgap
%output
    printlevel normal
end
* xyz 0 1
C -1.8162702757 -1.3585481804 -0.0003899813
C -0.4797801854 -1.7084216218 0.0005065215
C 0.4993477833 -0.7285798832 8.65332e-05
C 0.1296396552 0.611170368 0.0002581674
C -1.2042897389 0.9691884333 0.0007586427
C -2.1908815302 -0.0165973272 0.0006044354
O -3.475430854 0.3856101937 -0.0005237946
Cl 1.3426187552 1.8495254241 -0.0003645804
Cl 2.1776416727 -1.1752239298 2.74618e-05
H -2.5651024506 -2.1345423223 -0.0011436974
H -0.186774877 -2.7450676976 0.0032447617
H -1.4953796975 2.0061642441 -0.0013325977
H -4.0841737361 -0.3708755076 -0.0023351917
*
