! pbe def2-sv(p) def2/J RI DEFGRID1 loosescf d4 GCP(DFT/SV(P)) printgap
%output
    printlevel normal
end
* xyz 0 1
C -2.4200509553 -0.6932065539 -0.010593507
C -0.9899995068 -0.2799213087 0.3587231986
H -0.9666792291 0.0576195104 1.4073185138
C -0.5028987929 0.8686095786 -0.529357247
H -0.3879956138 0.5021122337 -1.5590338362
C 0.8755754042 1.3386189487 -0.0364553035
H 0.6996746498 1.9949110678 0.8313939606
C 1.7351064273 0.1447581607 0.4447647783
H 2.7478313826 0.2481202798 0.0323537294
C 1.1939895859 -1.1869351756 -0.0947663027
H 1.7443204535 -2.0064377187 0.3953940232
O -0.1475025404 -1.4206267927 0.2336193781
O 1.4066018374 -1.203037414 -1.4733115529
O 1.7565486604 0.0386337664 1.8460707273
O 1.4622578132 2.0576146978 -1.0918655629
O -1.4402938195 1.9134137013 -0.473223593
O -2.9589387353 -1.6728427935 0.837248341
H -2.4198948675 -1.1341800746 -1.0089517729
H -3.0388913717 0.2122615264 -0.0143525109
H 1.1280749525 -2.058349608 -1.8350567377
H 2.3206426538 0.7283560765 2.2264658216
H 2.3017063467 2.4504798593 -0.813224296
H -1.1427998725 2.6238620995 -1.0611789465
H -2.9445162642 -1.3525083125 1.7501771896
*
