! wb97x-v def2-tzvp def2/J RIJCOSX DEFGRID2 scfconv7 GCP(DFT/TZ) printgap
%output
    printlevel normal
end
* xyz 0 1
C 2.8923774880688637 -0.0009217697014470749 1.1659797550582691
C 1.9965182440893903 1.1951191707820206 1.4629278125359835
H 2.0690317922582295 1.4491456808741374 2.521296527640485
C 0.5077949985265761 0.7919254710697108 1.2436749625963235
H -0.040396060132668984 1.1735450902934614 2.1059132263296796
C 0.5073533561678729 -0.7925006572824096 1.2436874745433466
H -0.041030923630949366 -1.1735617691905331 2.1060080811123623
C 1.9958596709819998 -1.1964099060571223 1.46306676012431
H 2.068323603912865 -1.4504918441825394 2.5213793591922857
Cl 2.610878249484097 -2.687953184875718 0.6174959131261007
C -0.4052137009484439 -1.1289632158421414 0.0041526987467926215
C -1.788077350988799 -0.6668112301456832 0.47339485049736846
C -1.7876351994935087 0.6678510420112221 0.47326853281587794
C -0.4044173233637474 1.129151360419422 0.004036279651762806
C -0.12738623171102587 -9.76863794880734e-05 -1.0294701974667888
Cl 1.5022162904850793 -0.0004490113035477191 -1.7297040859992887
Cl -1.2881910425610694 0.0006036870539764672 -2.4062811724288338
Cl -0.3941450416909484 2.7762909855837052 -0.6450060818800968
Cl -3.0004081172597106 1.720069370416665 1.0465922726916477
Cl -3.0016194773324965 -1.7180830555139694 1.0466739527655222
Cl -0.3964930392059613 -2.7760005323024464 -0.6450021226282512
Cl 2.6116564309701125 2.6864525997418736 0.6171989876266112
H 3.772971827910924 -0.0010995598272879837 1.8118615477823374
H 3.2336961317687467 -0.0010421828937316826 0.13380617136255643
*
