! pbe def2-sv(p) def2/J RI DEFGRID1 loosescf d4 GCP(DFT/SV(P)) printgap
%output
    printlevel normal
end
* xyz 0 1
C -1.9039073273 -0.0436530117 0.2458594926
C -0.9081548075 -1.1894029624 0.4632009659
C 0.1934541942 -1.147935892 -0.5889306689
C 1.0554584688 0.1139534291 -0.4349201892
C 0.2399118796 1.2704746567 0.1651997634
C -1.2064944109 1.2035736613 -0.3127327674
O 2.1637404205 -0.2221906344 0.386686392
H -2.3864676747 0.1941374619 1.1951465714
H -2.6841773738 -0.3590847444 -0.4484903786
H -0.4470784606 -1.1100440878 1.4487493319
H -1.4275721207 -2.1473746512 0.4195481059
H 0.8518467619 -2.0113795685 -0.4848283204
H -0.2489030513 -1.1723797402 -1.584987212
H 1.4310180599 0.4071993956 -1.4294709331
H 0.2664328222 1.189429998 1.253548052
H 0.6870851325 2.2259863769 -0.1152217903
H -1.7422784724 2.1007328446 -0.0005487165
H -1.2114596113 1.1802060031 -1.4041596418
H 2.7108025322 0.5627167145 0.5218987192
*
