! pbe def2-sv(p) def2/J RI DEFGRID1 loosescf d4 GCP(DFT/SV(P)) printgap
%output
    printlevel normal
end
* xyz 0 1
C 1.7215753014 0.2953968444 -5.07455e-05
C 0.6785033595 -0.5060670917 5.51847e-05
Cl -0.95722655 0.0807859093 -7.6951e-06
H 2.7145714856 -0.1155355451 -5.82399e-05
H 1.6249377559 1.3663036668 0.0003266926
H 0.7300171099 -1.5819315329 -5.06866e-05
*
