! pbe def2-sv(p) def2/J RI DEFGRID1 loosescf d4 GCP(DFT/SV(P)) printgap
%output
    printlevel normal
end
* xyz 0 1
C -2.1899133399 -0.6435644406 -0.7336094359
C -1.3894050953 -0.481511645 0.5789295215
H -2.0909155397 -0.7345905235 1.3870378922
C -0.8804054358 0.9484740675 0.8207081095
H -1.687489046 1.651675702 0.5690487676
C 0.3249124492 1.3161214382 -0.0618153848
H 0.9794753801 1.9569982626 0.5454347532
C 1.1432039887 0.0793118081 -0.4579349644
H 0.7626695026 -0.3365469476 -1.4035267719
C 0.9760293671 -1.0072906876 0.6105151615
H 1.2942842396 -0.6029420558 1.5929245245
O -0.354627807 -1.4568502 0.6907899675
O 1.7699143106 -2.0854636844 0.2483966694
O 2.4874946304 0.4672176417 -0.5912004872
O -0.1529381732 2.0202057387 -1.184042596
O -0.475064442 1.1242536851 2.1591533283
O -1.5275421183 -0.2918557087 -1.9175974773
H -3.1186162298 -0.0673904411 -0.6265218751
H -2.4380083401 -1.7022180842 -0.8391408375
H 1.4875724377 -2.870334392 0.741516903
H 3.0280242925 -0.328548334 -0.7069570868
H 0.6019285708 2.3396959483 -1.6995644454
H -1.2389558737 1.0491626498 2.7503254448
H -1.296236795 0.6559852476 -1.8920714501
*
