! wb97x-v def2-tzvp def2/J RIJCOSX DEFGRID2 scfconv7 GCP(DFT/TZ) printgap
%output
    printlevel normal
end
%cpcm
    smd true
    smdsolvent "water"
end
* xyz 0 1
C -3.4462138358123275 0.5812229486356176 -0.006857064911927723
C -1.9520480675514804 0.4704215049726361 0.050607339204674716
C -1.1324801621979157 1.4452142163985218 -0.3590595926121688
C 0.3637259876950032 1.3606737858615545 -0.3690134162833227
C 0.8725113802676034 -0.08045249083902917 -0.18396134742713435
H 0.6412173510931075 -0.6237882060379317 -1.1136180643602387
C 0.08490397154356352 -0.729555634357449 0.9495850104005484
C -1.4011686788861404 -0.8122382024926995 0.6177390127470042
H -1.9585421381858519 -1.0483531758866245 1.5372685891328381
O -1.671742370243111 -1.8616335077265558 -0.3533192263260585
C 2.3756002877923925 -0.11197651110246148 -0.02113888766836624
C 2.98870804539891 -0.5524267805568193 1.0828916909097774
C 3.1623685137953674 0.3941112457287242 -1.1979766290002805
H -3.875563854600649 -0.21146954430538623 -0.6312037911053524
H -3.7600281251947782 1.5455493400086395 -0.41580234130373467
H -3.8851209917981486 0.4660637279847432 0.9922358010720186
H -1.566618956783972 2.3768663763393247 -0.7216236126175852
H 0.7336849575218305 1.7814212327884313 -1.310976628990123
H 0.7771405966136405 1.9992879739646132 0.42770606628492486
H 0.45243458089446836 -1.7402597451431487 1.1625802728519976
H 0.20254338306600908 -0.13905890688397238 1.8681150417796304
H -1.4463023602743978 -2.7004363690355997 0.07091518445948512
H 4.073872114634975 -0.5590839245264632 1.1473140086000333
H 2.443277432993672 -0.9197659400539882 1.9461793187859189
H 2.835551938363621 -0.09491167185814123 -2.1236055060616117
H 3.011349592426209 1.4703598780968368 -1.3424385834092036
H 4.232880121727469 0.21817711110581298 -1.0665970562836462
*
