! wb97x-v def2-tzvp def2/J RIJCOSX DEFGRID2 scfconv7 GCP(DFT/TZ) printgap
%output
    printlevel normal
end
* xyz 0 1
C -0.42219754967077894 -1.0599562787261738 5.1503815832794345e-05
C 0.94845661019811 -1.2204991299880246 2.050402262952928e-05
C 1.775613662417412 -0.08671415682698985 3.819611771124386e-05
C 1.2287846372344342 1.200834489314045 9.102765180765281e-05
C -0.14541659080212704 1.3480901453058265 0.00012800536514855852
C -0.9887598000898716 0.22584297563583863 9.110240017361816e-05
C -2.4277405323934556 0.4270732760947801 -1.773993672330595e-05
O -3.2692747163237867 -0.4718559467966561 -0.00018351693818382321
O 3.1321138456187563 -0.18568679029901086 -4.023483449570205e-06
H -1.0715823623096599 -1.9295973222876812 2.1641359443073784e-05
H 1.3961711032006627 -2.210261195175301 -2.3364622283190914e-05
H 1.8901382923246994 2.0605417889872513 8.854035415288748e-05
H -0.5828370902401695 2.3427485296338344 0.00017227294576939214
H -2.750418120635767 1.4872039986934964 0.0002519765883771322
H 3.393343155709313 -1.1184535518860759 -4.263015486991942e-05
*
