! pbe def2-sv(p) def2/J RI DEFGRID1 loosescf d4 GCP(DFT/SV(P)) printgap
%output
    printlevel normal
end
* xyz 0 1
C 2.0585894043 -1.0443810459 -5.38683e-05
C 2.3401904314 0.3173417143 -0.0002130427
C 1.3183642463 1.2441670809 -0.0001791432
C -0.0161529541 0.8369731264 0.0001516559
C -0.3099083282 -0.5444290907 6.74911e-05
C 0.7477644651 -1.4628348557 0.0001920908
C -1.6722321121 -1.0439746813 -0.000153475
O -2.698743238 -0.3929520999 -0.0002550584
O -1.0234970528 1.7200318982 0.0003631626
H 2.860601948 -1.7645050678 -0.0002342916
H 3.3644568493 0.6554546225 0.0004901754
H 1.5472057684 2.2995556236 -0.0001132406
H 0.510194907 -2.5158765639 0.0008177929
H -1.7291073766 -2.150835998 -0.0001157316
H -0.6935883598 2.6342791939 -0.0003169783
*
