! r2scan-3c def2/J RI DEFGRID2 scfconv6 printgap
%output
    printlevel normal
end
* xyz 0 1
C -1.3631925946 -0.8758612355 0.2335817658
S 0.0001623271 0.1577241197 -0.4348444298
O 0.0016306975 1.4033339505 0.3887423882
C 1.3612110811 -0.8788930576 0.233559975
H -1.2607055934 -0.9645437935 1.3088313467
H -1.315183983 -1.8420857249 -0.2515496293
H -2.2965014323 -0.3796243517 -0.009204825
H 1.2600906963 -0.9644912245 1.3092191156
H 2.2958431711 -0.3863974887 -0.0119641811
H 1.3090204561 -1.8461771674 -0.2491458709
*
