! pbe def2-sv(p) def2/J RI DEFGRID1 loosescf d4 GCP(DFT/SV(P)) printgap
%output
    printlevel normal
end
* xyz 0 1
C -3.0829903909 0.4062566804 0.0002016151
C -1.6252395053 0.0548488153 -0.0002333035
C -1.1974958239 -1.2625706734 -0.0001866917
C 0.1534399309 -1.5680232445 -4.6132e-06
C 1.0999736548 -0.555671222 7.3937e-05
C 0.6912658305 0.7836984492 6.83741e-05
C -0.6634377495 1.060534325 -6.31356e-05
C 1.7252359611 1.8669084841 -6.10487e-05
O 2.4414269016 -0.8139917538 0.0001056283
H -3.3309137069 0.9914661135 0.8843403637
H -3.3283824848 1.00516213 -0.8753512754
H -3.6970745122 -0.4901164992 -0.0074720622
H -1.92061346 -2.064949251 -0.0002520458
H 0.4707146919 -2.6014956913 -4.73395e-05
H -0.983506171 2.0929281254 -4.09762e-05
H 2.366680811 1.7693689739 0.8746415338
H 2.361384104 1.774193111 -0.879179178
H 1.2592393264 2.8478221535 0.0039156874
H 2.5971963398 -1.7695081477 0.0002099118
*
