! r2scan-3c def2/J RI DEFGRID2 scfconv6 printgap
%output
    printlevel normal
end
%cpcm
    smd true
    smdsolvent "water"
end
* xyz 0 1
C 3.240837694 -0.108473324 1.0060480076
C 1.913074207 -0.1123190753 0.3325669835
C 1.3448077775 1.010580353 -0.134986583
C 0.043695651 1.0524000792 -0.7751547648
O -0.3810644963 2.0722797888 -1.313832401
C -0.7808195846 -0.2175566943 -0.6983284121
H -1.5135738968 -0.1969647259 -1.5123793062
C 0.1569397679 -1.4126069516 -0.8797629584
C 1.2411315781 -1.4396213209 0.1924385883
C -1.5617713861 -0.2101935717 0.6387716096
C -2.6003107657 0.9113075281 0.6276664249
C -2.2640139991 -1.5435574479 0.8929430786
H 3.5949456428 0.9032966179 1.1794571462
H 3.9673055872 -0.6336707732 0.3874469423
H 3.1789471505 -0.6375751063 1.9549387276
H 1.8558749647 1.9615294369 -0.0656753757
H -0.4104655811 -2.3421414657 -0.874411435
H 0.6311923031 -1.3199799748 -1.8605294041
H 0.8074189752 -1.7072199045 1.1599917662
H 1.9850505507 -2.2019365338 -0.0455711545
H -0.8558220464 -0.0146366705 1.4528619647
H -3.3729189481 0.7025829778 -0.109601431
H -2.1452556143 1.866624376 0.3748464586
H -3.0704554965 1.0033407267 1.6037880811
H -2.904624844 -1.453758305 1.766880463
H -1.5555463586 -2.3452771654 1.0760859039
H -2.8849161801 -1.8111980375 0.0411713812
*
