! wb97x-v def2-tzvp def2/J RIJCOSX DEFGRID2 scfconv7 GCP(DFT/TZ) printgap
%output
    printlevel normal
end
* xyz 0 1
C -2.4207767222963383 -0.3115232137195362 -1.2380268363940603
C -1.7224741673949249 0.04156404565141989 0.04664652647811275
C -2.4196531088217585 0.32149794904631973 1.1579019662394412
C -0.2399471689767825 0.05000754530935806 0.03716854523850814
C 0.4790016782101267 -0.7683510550897248 -0.8477064571581959
C 1.8710158114108553 -0.7738825137130148 -0.8472041003356802
C 2.577614139468901 0.05007132086166504 0.02443036024456988
C 1.8773113865937394 0.8834575852537987 0.8958631403433811
C 0.487837853857116 0.8855760050043804 0.9001875331270497
H -2.258170592464697 -1.363030759467405 -1.5026688147297989
H -3.4976699572806185 -0.15152665635984516 -1.1478675998648766
H -2.0406128647019792 0.2890118113088066 -2.072448188468583
H -1.934247691758771 0.5330361886457229 2.105794051121878
H -3.5056444816978005 0.3273527024807041 1.1444773765438607
H -0.05004918582062048 -1.4209582073456042 -1.5339411227215576
H 2.4044277491965853 -1.424409720600595 -1.5337622505496984
H 3.662946236859376 0.05177511899115852 0.018566697481482743
H 2.416870493340266 1.5453015553650598 1.5665037204688645
H -0.04224454692135309 1.560577641247233 1.5646386600520719
*
