! r2scan-3c def2/J RI DEFGRID2 scfconv6 printgap
%output
    printlevel normal
end
%cpcm
    smd true
    smdsolvent "water"
end
* xyz 0 1
C 2.502683086 0.0637414563 -0.0622833285
C 0.9982787115 0.0668809352 -0.0059804896
C 0.3076785451 1.1944614633 0.0966669076
C -1.1886958395 1.2725370028 0.1263061749
C -1.8224714711 -0.0262766214 -0.3631044418
C -1.1438559467 -1.2092688262 0.3171534635
C 0.323621393 -1.2740922743 -0.0974651664
H 2.9208370043 0.5403266607 0.8226159608
H 2.8536591909 0.616005655 -0.9325988128
H 2.8859781179 -0.951211217 -0.1222499622
H 0.8301254835 2.1397118627 0.1728187986
H -1.5143223496 1.4797302819 1.1518078284
H -1.5212735668 2.1116771905 -0.4901382199
H -2.8929629739 -0.0247002799 -0.1499352686
H -1.6921296593 -0.1102814064 -1.4440677454
H -1.2101177065 -1.0843123778 1.4000046008
H -1.6459591868 -2.1418634779 0.0530619962
H 0.8560476241 -1.9904514665 0.5334376482
H 0.4013638165 -1.633113858 -1.1293353128
*
