! pbe def2-sv(p) def2/J RI DEFGRID1 loosescf d4 GCP(DFT/SV(P)) printgap
%output
    printlevel normal
end
* xyz 0 1
C 3.3019481599 -0.3182156851 0.893943967
C 1.9389335033 -0.1750343425 0.313485214
C 1.4278069896 1.0197719537 -0.023558803
C 0.0921703674 1.2133952934 -0.5470999809
O -0.3587815604 2.3407958358 -0.7487506723
C -0.7643826257 -0.0096884083 -0.8192324968
H -1.2259673989 0.1708723731 -1.7986014385
C 0.0651465243 -1.2919451636 -0.9189823332
C 1.1506537475 -1.4301679979 0.145078635
C -1.9475522724 -0.0090454154 0.1828013149
C -3.0439589818 -0.9806423468 -0.2487794789
C -1.5371295044 -0.2883150361 1.6266996786
H 3.94259377 -0.8506229753 0.1921790403
H 3.2587634515 -0.9083565461 1.8072380155
H 3.746179582 0.6489988331 1.1093999678
H 1.9996795593 1.927684095 0.1159380628
H -0.5953111039 -2.1579421052 -0.8885553472
H 0.5532020196 -1.2870848982 -1.8969119973
H 0.7171787359 -1.6857423755 1.1139706514
H 1.8203568023 -2.2483320204 -0.1268193315
H -2.3580746071 1.0082482255 0.1393930543
H -3.3646502646 -0.7754811464 -1.2671974376
H -3.9038808317 -0.877645467 0.4084255836
H -2.6979062304 -2.0094640261 -0.1933658924
H -2.363865306 -0.0465147627 2.2914243751
H -0.6835881284 0.322038811 1.9128463138
H -1.2962044335 -1.3385182564 1.7642805861
*
