! pbe def2-sv(p) def2/J RI DEFGRID1 loosescf d4 GCP(DFT/SV(P)) printgap
%output
    printlevel normal
end
* xyz 0 1
C -2.4045075474 -0.748737155 -0.0320665551
C -0.9943763984 -0.2874261897 0.3551505123
H -0.9967546317 0.0383001731 1.4074883898
C -0.5093911503 0.8690997959 -0.5283767734
H -0.4128115053 0.5179149271 -1.5613091944
C 0.8700601512 1.3348928976 -0.0307786481
H 0.719294465 1.9779446404 0.8537619587
C 1.7279904514 0.1503191398 0.4453276814
H 2.7400646104 0.3055995931 0.0498186529
C 1.1996175472 -1.1785439785 -0.119632648
H 1.7584235456 -2.0145184651 0.3318263598
O -0.1347364418 -1.4235390157 0.2433569836
O 1.376531826 -1.1624586131 -1.5007690713
O 1.7064019953 0.1450799328 1.8497300033
O 1.5812449423 2.0338097791 -1.0188672011
O -1.4225010706 1.9342739125 -0.5727266237
O -2.9591960654 -1.6207281428 0.9180856263
H -2.3604107231 -1.224292307 -1.0197737566
H -3.0680301658 0.1157410206 -0.0850748129
H 1.1500319902 -2.0277135745 -1.8761699329
H 2.3632654976 -0.4768041348 2.1945288633
H 0.9949015673 2.6940435186 -1.418637147
H -1.5522377958 2.2910751048 0.3189520353
H -2.3629561144 -2.3757323607 1.0253715217
*
