! pbe def2-sv(p) def2/J RI DEFGRID1 loosescf d4 GCP(DFT/SV(P)) printgap
%output
    printlevel normal
end
* xyz 0 1
C -1.6653380075 -1.3694030768 -0.5627114322
C -1.1293576759 -0.4976240551 0.5833711555
H -1.891676107 -0.4801241537 1.369661587
C -0.8732350449 0.9628278244 0.1295120514
H -1.2175025022 1.0738394207 -0.9047190934
C 0.6273740888 1.2702168662 0.2075892004
H 0.9278903255 1.3684509325 1.2585444471
C 1.4268769492 0.1071785951 -0.4024852463
H 1.0928112202 -0.0791099045 -1.4355629259
C 1.1787068615 -1.1624006836 0.4271071968
H 1.9917606661 -1.2492014268 1.1618536925
O 0.008941246 -1.0755903646 1.2095582002
O 1.1575361823 -2.2565064384 -0.4320741411
O 2.8026629231 0.3830613428 -0.3916757806
O 0.982339952 2.4868749255 -0.3977568104
O -1.6372108314 1.8946180948 0.8494574458
O -2.872459851 -0.8019437233 -1.0144883294
H -1.8245716432 -2.3812285221 -0.171534396
H -0.9263300313 -1.417450366 -1.3718834963
H 1.2324591863 -3.0822507277 0.0698342525
H 2.9182339165 1.3285698121 -0.5901765395
H 0.4957834784 2.600748257 -1.2271404178
H -1.3644197278 1.9017270671 1.7783412268
H -3.2642137632 -1.3795924458 -1.6846504836
*
