! pbe def2-sv(p) def2/J RI DEFGRID1 loosescf d4 GCP(DFT/SV(P)) printgap
%output
    printlevel normal
end
* xyz 0 1
C -2.3265838982 -0.9895820647 -0.2924802015
C -0.9329171903 -0.5260405692 0.1449783379
H -0.8348742611 -0.7026563871 1.2289070773
C -0.7178376382 0.9792959707 -0.1249597766
H -1.2795100268 1.2695507269 -1.0205531895
C 0.7802887802 1.2675758667 -0.3842971345
H 0.9894686198 2.2842269758 -0.0163556718
C 1.6448691432 0.2941566851 0.4288926777
H 2.6947419773 0.461456833 0.1634396373
C 1.3141485947 -1.1676400503 0.0350920368
H 1.3364965489 -1.7827350126 0.9652721833
O 0.0356096296 -1.2967361093 -0.5402720254
O 2.2578354558 -1.6225784148 -0.8641959444
O 1.3902958637 0.5475551099 1.7880657007
O 1.1416808106 1.1376655575 -1.7315869438
O -1.2334984051 1.7667150803 0.9179063148
O -3.3361630497 -0.4623015862 0.5285650193
H -2.3885011351 -2.0760896441 -0.2025175172
H -2.4855836242 -0.7169133469 -1.3441646625
H 1.8550059736 -2.3021677754 -1.4264102568
H 2.1079705838 0.1987914267 2.3348772729
H 0.695683558 1.8160325892 -2.2589530192
H -0.6917788803 1.6308731044 1.7109063354
H -3.2224615002 0.4983610493 0.5995079443
*
