! r2scan-3c def2/J RI DEFGRID2 scfconv6 printgap
%output
    printlevel normal
end
%cpcm
    smd true
    smdsolvent "water"
end
* xyz 0 1
C -1.6553116112 1.2398455223 -0.0112629908
C -0.9507902485 -0.0224145859 0.4734616694
H -0.9392927483 -0.0768724805 1.5678419371
C 0.5227381726 0.0093896517 0.031293448
F 1.1818776551 1.0794350789 0.510690382
F 1.2107607092 -1.0700758048 0.4407486675
F 0.6586907261 0.052566821 -1.307209153
O -1.5438733077 -1.2087733679 0.034399581
H -2.6957459882 1.2023047577 0.295975508
H -1.6026432133 1.3089518668 -1.0958619146
H -1.1870877425 2.1186809646 0.4219338252
H -1.7568570635 -1.1519330821 -0.910619537
*
