! r2scan-3c def2/J RI DEFGRID2 scfconv6 printgap
%output
    printlevel normal
end
%cpcm
    smd true
    smdsolvent "water"
end
* xyz 0 1
C 1.9386562464 -0.1337487722 -1.67108e-05
C 0.560954359 0.5180786336 3.18013e-05
C -0.5609547099 -0.5180830027 2.36322e-05
C -1.9386512516 0.1337543685 -2.35376e-05
H 2.0641605656 -0.7583267309 -0.8817410809
H 2.7200487004 0.6222539577 -8.00587e-05
H 2.0641279456 -0.7583745255 0.8817113734
H 0.460802487 1.155431679 0.8816617792
H 0.4608926061 1.1554058536 -0.8816125387
H -0.4607935349 -1.1554341804 -0.8815899726
H -0.4609135747 -1.1554453123 0.8816466944
H -2.0642492034 0.7584021692 0.8816490193
H -2.7200216036 -0.6222476349 -6.34148e-05
H -2.0641097253 0.7583201014 -0.8817627472
*
