  14
        -22.07646249
 C         -2.2369305496        0.2710320125        0.0000208515
 C         -1.7763022270       -1.0381492970       -0.0000258676
 C         -0.4189058904       -1.2934149124       -0.0000439223
 C          0.4903390965       -0.2327083369        0.0000185597
 C          0.0174144116        1.0831156510       -0.0000765351
 C         -1.3405089339        1.3306933101        0.0000369912
 C          1.9232570848       -0.4959093389        0.0000190220
 O          2.7985266939        0.3469103662        0.0000257153
 H         -3.2981370759        0.4662405844       -0.0001167877
 H         -2.4790107638       -1.8566655245        0.0005283945
 H         -0.0509721165       -2.3084242543       -0.0002249508
 H          0.7380128857        1.8874110626       -0.0002563780
 H         -1.7037506886        2.3464813051        0.0001991934
 H          2.1911644162       -1.5690710735        0.0000688770
