! pbe def2-sv(p) def2/J RI DEFGRID1 loosescf d4 GCP(DFT/SV(P)) printgap
%output
    printlevel normal
end
* xyz 0 1
C -2.8267743432 1.2891298955 0.7362566748
C -1.6964950321 0.579836573 0.0616180903
C -0.8819400096 1.1275235817 -0.8314436718
C 0.2245416192 0.3218550374 -1.4300155681
C 0.9883572068 -0.5124056537 -0.3770936353
H 1.3835017815 -1.3916502834 -0.892694013
C 0.0712974526 -0.9969802098 0.7678499975
C -1.4217504387 -0.8546112206 0.4501465533
H -1.9963920904 -1.1167524795 1.3538126496
O -1.7463423671 -1.780304031 -0.5801799758
C 2.1554664896 0.2496952473 0.2116561116
C 2.0723080487 1.5251761627 0.5545162813
C 3.4029376699 -0.5547521849 0.4148906402
H -2.9242408037 2.3021665262 0.3555593111
H -2.6496767743 1.3327144042 1.8107622246
H -3.7660031856 0.761133573 0.5772582434
H -1.0110991061 2.1488172591 -1.1605892298
H -0.2096128591 -0.3735666997 -2.1530861772
H 0.9281442013 0.9636633511 -1.9606954762
H 0.2769000375 -2.0441008032 0.9912527406
H 0.2665679193 -0.4085052076 1.6659925445
H -2.6742513824 -1.6691043745 -0.8229314501
H 2.9048146876 2.050576902 0.9915623927
H 1.1685667179 2.0932745171 0.4150375955
H 3.1848257666 -1.4311556811 1.023424585
H 3.783810553 -0.9030670002 -0.5443849157
H 4.1737900106 0.0332794125 0.9053411834
*
