! r2scan-3c def2/J RI DEFGRID2 scfconv6 printgap
%output
    printlevel normal
end
* xyz 0 1
C -0.4110365961 -1.0471969444 8.28986e-05
C 0.9534389581 -1.1987540759 3.75375e-05
C 1.7837411306 -0.0718988034 -3.70047e-05
C 1.2158413519 1.204928161 -9.8078e-06
C -0.1526491429 1.3519818807 2.7151e-06
C -0.9879508181 0.2303815449 -1.98908e-05
C -2.4279927706 0.386099294 1.31746e-05
O -3.2444917404 -0.5183883753 -2.99977e-05
O 3.1111635012 -0.2712747658 -6.7054e-06
H -1.0667882231 -1.9046675493 0.0001346497
H 1.4118172583 -2.174462912 -0.0001532791
H 1.8529963399 2.0766468574 -0.0002737545
H -0.5905300646 2.3386312598 0.0001058145
H -2.7756390662 1.4366550564 -0.0001515253
H 3.6015732903 0.5670795252 9.10685e-05
*
