  16
        -25.52515586
 C          2.4509920634       -1.1995112584        0.0072734917
 C          1.6993724456        0.0970538861       -0.0003816245
 O          2.2708188508        1.1754764723       -0.0066299840
 C          0.2163698483        0.0287722226       -0.0002384296
 C         -0.5132364630        1.2207522188        0.0033595496
 C         -1.8942283482        1.1704798529        0.0037380207
 C         -2.5024326969       -0.0774744022        0.0006377819
 N         -1.8261020380       -1.2167358612       -0.0035794614
 C         -0.5066065386       -1.1662967242       -0.0040878567
 H          2.1843492704       -1.7765224678        0.8891265262
 H          3.5185133589       -0.9965415955        0.0123593827
 H          2.1943273556       -1.7799448460       -0.8753790903
 H          0.0236741050        2.1584178994        0.0060301600
 H         -2.4853327172        2.0715361053        0.0068617947
 H         -3.5788459203       -0.1777010057        0.0013094496
 H         -0.0168694926       -2.1289299668       -0.0080737249
  16
        -25.52491430
 C          2.4731079687        1.2063804233       -0.0269518402
 C          1.6968668650       -0.0767448689        0.0020170910
 O          2.2499877582       -1.1643301466        0.0258651458
 C          0.2165928999        0.0231865423        0.0005863478
 C         -0.4836088628        1.2304688775       -0.0058272603
 C         -1.8671668868        1.1966776971       -0.0068376415
 C         -2.5029644563       -0.0368594110       -0.0007894537
 N         -1.8528023774       -1.1926017157        0.0055031072
 C         -0.5344941496       -1.1567940786        0.0060845849
 H          2.2136758083        1.7768800672       -0.9151740979
 H          3.5363316892        0.9826044617       -0.0352504017
 H          2.2343458118        1.8011898585        0.8512750542
 H          0.0336237204        2.1763419644       -0.0093863998
 H         -2.4436916587        2.1072047212       -0.0115912280
 H         -3.5812589684       -0.1136550518       -0.0002008648
 H         -0.0247152169       -2.1115198792        0.0112453893
  16
        -25.52306894
 C          2.4592365704       -1.1080124613        0.4590616541
 C          1.6972622837        0.0837168178       -0.0367073430
 O          2.2611567646        1.0935233314       -0.4272645144
 C          0.2149780180        0.0223831453       -0.0063222878
 C         -0.5065682055        1.1986525373        0.2080576854
 C         -1.8878806661        1.1502777538        0.2292147116
 C         -2.5029612222       -0.0775601058        0.0259353894
 N         -1.8328882738       -1.1936792054       -0.2168785729
 C         -0.5139376650       -1.1460381500       -0.2352474930
 H          2.9410634510       -0.8241188429        1.3939590974
 H          3.2513618472       -1.3496667797       -0.2461097525
 H          1.8244676946       -1.9675661726        0.6347934015
 H          0.0325517801        2.1219235555        0.3632357830
 H         -2.4739169694        2.0380419820        0.4010820298
 H         -3.5789117258       -0.1782590851        0.0490597041
 H         -0.0270816640       -2.0811328726       -0.4739608657
  16
        -25.52285007
 C          2.4762604496        0.5826350260       -1.0485913398
 C          1.6952200338       -0.0211438632        0.0804768509
 O          2.2416140453       -0.5892848749        1.0121692150
 C          0.2150255108        0.0425882970        0.0043238027
 C         -0.4921873496        1.1244282107       -0.5176646632
 C         -1.8756282716        1.0737041710       -0.5262908248
 C         -2.5022174765       -0.0514728664       -0.0104976245
 N         -1.8427239961       -1.0857419439        0.4922372827
 C         -0.5255612297       -1.0338768502        0.5019993677
 H          3.3065997105        1.1592794237       -0.6478527087
 H          1.8644484870        1.1906013729       -1.7033468242
 H          2.9047630327       -0.2364604495       -1.6248795385
 H          0.0221255201        2.0023269885       -0.8774527612
 H         -2.4575494501        1.8927331387       -0.9158797812
 H         -3.5795990615       -0.1348183577        0.0122510959
 H         -0.0111729258       -1.8901988628        0.9180712899
