! wb97x-v def2-tzvp def2/J RIJCOSX DEFGRID2 scfconv7 GCP(DFT/TZ) printgap
%output
    printlevel normal
end
* xyz 0 1
C 4.827812382649031 0.11876834756613448 0.0003541152631934303
C 4.538210313963124 1.4798959867670676 0.000720196697317858
C 3.214455778029291 1.9149791035695178 0.0005037791889601757
C 2.1943872955869135 0.9794340218402958 -9.301035054347743e-05
C 2.483236647755242 -0.3788667362654597 -0.0003736269150742376
C 3.7960606070470906 -0.8177089074666467 -0.00017569108000746068
O 1.4770457228662788 -1.338551562425938 -0.0009021235096366054
C 0.18924960070738092 -0.8670174844676739 -0.00040916739812372105
C -0.8582711571024766 -1.7816468179289058 -0.00010502840115094193
C -2.182903982594602 -1.3649154383539273 0.00019781299144045839
C -2.4598762897212736 -0.007002191370235832 0.0002508124104413125
C -1.426867242891935 0.9343089845389141 3.2425352486014215e-05
C -0.10254979253175103 0.4981752497466485 -0.00025607307320406683
O 0.884264220012066 1.4488640463142028 -0.0004629853717390039
Cl -1.7446824917625592 2.638862069799482 0.00010627501887414733
Cl -4.122442134784029 0.5120541420295902 0.0005979831865669035
Cl -0.4933580144374343 -3.4862305483712808 -0.00018087249336577355
H 5.856836601034039 -0.222838521811968 0.00047633662117145135
H 5.339125538638393 2.2107219393637365 0.0011719675204011058
H 2.961930526196702 2.9697865321920225 0.0007635017929068676
H 3.9950292706250345 -1.8839919379000833 -0.0004675892298551593
H -2.9859348470112064 -2.090959796084091 0.0004286627232524216
*
