! pbe def2-sv(p) def2/J RI DEFGRID1 loosescf d4 GCP(DFT/SV(P)) printgap
%output
    printlevel normal
end
* xyz 0 1
C -2.17742622 -1.0166949701 -0.4458414684
C -1.166100653 -0.2361413498 0.4023615283
H -1.6948125535 0.1392434118 1.2866943217
C -0.5957320442 0.9433406125 -0.4073512765
H -0.4403318291 0.6262045523 -1.4466465829
C 0.7627592935 1.3226850351 0.1982148985
H 0.669160977 1.4365771869 1.2851763455
C 1.7320133919 0.1637138045 -0.0862865304
H 1.9995662665 0.1727427468 -1.1549515854
C 1.0423876703 -1.1872286985 0.1985607912
H 1.7070764459 -1.762552587 0.8579290864
O -0.1378337427 -1.0594536494 0.9474664798
O 0.8357798143 -1.8347301822 -1.0187151618
O 2.8891866566 0.239399532 0.7049875181
O 1.2609233898 2.5479378392 -0.2711566172
O -1.4912517171 2.0169332503 -0.4836770305
O -2.9060783751 -1.8896666926 0.3864106678
H -1.6423761663 -1.5671220546 -1.2279099587
H -2.8417669093 -0.277299861 -0.9129364425
H 0.6253963497 -2.768394212 -0.8632504359
H 3.2595731863 1.1329925194 0.6280386664
H 1.1318725983 2.6125409531 -1.2286823713
H -1.588938042 2.4316021034 0.3862683292
H -3.5474922098 -2.3776349968 -0.1489158587
*
