! pbe def2-sv(p) def2/J RI DEFGRID1 loosescf d4 GCP(DFT/SV(P)) printgap
%output
    printlevel normal
end
* xyz 0 1
C -3.4642993622 -0.0100427742 -0.5980257528
C -1.9732551225 -0.3336221712 -0.5911230889
H -1.7468109578 -0.9258582249 -1.4831553973
C -1.5882928483 -1.163612496 0.6327123545
C -0.1081791709 -1.5241716943 0.559988838
C 0.7815534054 -0.2657914786 0.5692983204
H 1.3130128965 -0.1812632802 1.5232803971
C -0.0578311186 0.9829369804 0.435446584
O 0.139501323 1.9636196243 1.1302454589
C -1.1362723906 0.9622389401 -0.6116877749
C 1.8465585181 -0.3019641184 -0.5532557568
C 2.6049461016 1.0208551234 -0.6462946482
C 2.835498887 -1.4387385572 -0.3023105009
H -3.7337772397 0.5582645808 0.2897298561
H -3.7243907657 0.5750368763 -1.4765706976
H -4.0492107053 -0.9265349733 -0.6092007728
H -1.7911997219 -0.5919255976 1.5423358879
H -2.1865985383 -2.0752505645 0.6642877078
H 0.1591680279 -2.165329224 1.3998156201
H 0.0579539592 -2.0896596755 -0.3584016234
H -1.7686660181 1.838279705 -0.4553943069
H -0.6435604015 1.0815337357 -1.5787441428
H 1.3335590878 -0.4807741203 -1.5041599295
H 3.3852250275 0.9531101203 -1.4003762413
H 3.0675800684 1.260054809 0.3089887803
H 1.9435605201 1.843584119 -0.9099113779
H 3.5575891197 -1.4871613068 -1.1135512795
H 2.3304058779 -2.3975976575 -0.235793168
H 3.3750118804 -1.2683166734 0.6264324335
*
