! wb97x-v def2-tzvp def2/J RIJCOSX DEFGRID2 scfconv7 GCP(DFT/TZ) printgap
%output
    printlevel normal
end
* xyz 0 1
C 1.8101296012388313 -0.5031284848953145 0.5118394170440045
C 0.8356652297741023 -0.32897978874256917 -0.6628632002155881
C -0.4779428452297204 0.21970094026631223 -0.18562351688459952
O -0.8392072359852184 1.3751467134088486 -0.3146491729011127
O -1.2970906211613575 -0.6395760716662495 0.4727913600206605
H 1.4334126000880119 -1.2309417964349358 1.236035717143868
H 2.7722567950672286 -0.860877305157289 0.13747114312932082
H 1.9725687374469951 0.44816630356374354 1.0261406828165027
H 1.2405878581123464 0.37234351443242636 -1.3948777171435442
H 0.6683964022957873 -1.2931861893064442 -1.155516244057356
H -0.9055191983269574 -1.5271303463411328 0.5009349992158455
*
