! r2scan-3c def2/J RI DEFGRID2 scfconv6 printgap
%output
    printlevel normal
end
%cpcm
    smd true
    smdsolvent "water"
end
* xyz 0 1
C -3.476231123 0.3393338869 -9.143e-07
C -2.7417076115 1.5123053764 1.85896e-05
C -1.3573499104 1.4575496088 0.0001250694
C -0.7268318947 0.2313496258 4.57688e-05
C -1.4479138343 -0.9599731767 -0.000181307
C -2.837760558 -0.8875849399 -3.75862e-05
O -0.7665508252 -2.1221366534 0.0001123654
I 1.3939550643 0.103165227 -8.9323e-06
H -4.5540821392 0.3763162195 3.44578e-05
H -3.237124588 2.469574698 -0.0003541665
H -0.7733778279 2.3643320297 4.7983e-06
H -3.4152710286 -1.7997912103 -0.0002739886
H -1.3603072662 -2.8877276803 0.0002919068
*
