! wb97x-v def2-tzvp def2/J RIJCOSX DEFGRID2 scfconv7 GCP(DFT/TZ) printgap
%output
    printlevel normal
end
* xyz 0 1
C -2.384518607235972 -6.838602248179797e-06 0.04821755678094075
N -0.9849156242051995 1.5755221139670077e-07 -0.38145951547586665
C -0.32170570134861953 1.2011836042497557 0.15519257639090345
C 1.1508832859544467 1.2518922006499584 -0.2307510639606232
C 1.878700048746285 1.2331359103348565e-05 0.25727353375817513
C 1.15089585361059 -1.2518718257921728 -0.2307522111433238
C -0.3216933869582185 -1.2011780323774892 0.15519277665175338
H -2.8963165655349052 -0.8868056628928996 -0.3400789252956125
H -2.8963278565511494 0.8867827033765732 -0.34008625871276926
H -2.4883619404289066 -2.8549121575450203e-06 1.1492244701828804
H -0.8466154324022247 2.084350895301379 -0.22716080600791788
H -0.40760485576665084 1.2267252760640173 1.2609067418472248
H 1.2421636217606151 1.334318338075144 -1.32142302540048
H 1.6003488881431616 2.153549528691643 0.20069740776287098
H 2.920141740649914 1.8894319541330173e-05 -0.08354008397108496
H 1.896012119378591 1.23029739478081e-05 1.3559571139545603
H 1.2421764882325192 -1.3342969206323647 -1.3214238442988688
H 1.6003686352430706 -2.15352650396783 0.20069419148996873
H -0.8465944957411197 -2.0843495682361675 -0.2271619030392771
H -0.4075908840183143 -1.2267178874731988 1.2609058821509873
*
