! pbe def2-sv(p) def2/J RI DEFGRID1 loosescf d4 GCP(DFT/SV(P)) printgap
%output
    printlevel normal
end
* xyz 0 1
C -2.3435774438 -0.7793057028 0.7314158698
C -0.8781293803 -0.3226023208 0.7443034071
H -0.6213696513 0.0068584918 1.761422611
C -0.6277065942 0.8375096181 -0.2228518405
H -0.7594777146 0.4767082511 -1.2520780419
C 0.8236514074 1.3242330707 -0.0616588006
H 0.8263075339 2.0387928573 0.7778513042
C 1.7701364981 0.1590294434 0.3127709796
H 2.712928928 0.2787692962 -0.2392966897
C 1.1905897802 -1.1889250902 -0.1339941453
H 1.8322825143 -1.992120437 0.2630978064
O -0.0826192676 -1.4530169171 0.3975920774
O 1.1862020827 -1.1961547876 -1.5268844671
O 1.9958181932 0.0736176618 1.6967356151
O 1.1823931885 1.9647217668 -1.2594508715
O -1.5364093534 1.8678430581 0.0718889339
O -2.7259026028 -1.3386726017 -0.4973659821
H -2.979219328 0.0916737712 0.8935181498
H -2.4886709105 -1.5003367755 1.5448660546
H 0.9444945411 -2.0743484966 -1.8573025632
H 2.5529297903 0.8099521901 1.9904054672
H 2.064813174 2.3555053051 -1.1863944745
H -1.4703814882 2.5454346011 -0.6162163383
H -2.1488768713 -2.0973686984 -0.6668470594
*
