! r2scan-3c def2/J RI DEFGRID2 scfconv6 printgap
%output
    printlevel normal
end
%cpcm
    smd true
    smdsolvent "water"
end
* xyz 0 1
C -2.5408109332 -0.914886309 0.2745857378
C -1.1182696634 -0.4717461868 0.6215322191
H -1.0238274712 -0.4080612359 1.7169956226
C -0.8237182822 0.917952536 0.0386128052
H -1.0523896077 0.9038716432 -1.0368401718
C 0.6583599648 1.271381077 0.2144564407
H 0.8725005467 1.3883505788 1.2895146671
C 1.532537833 0.1413082363 -0.3303944853
H 1.3615893475 0.0490028197 -1.4144696143
C 1.1225334127 -1.1793332191 0.3508561673
H 1.3281948033 -1.0941730109 1.4334718913
O -0.2332995989 -1.4536466034 0.1212993733
O 1.8686383496 -2.2460049956 -0.1209042297
O 2.8776329278 0.4536118518 -0.0660187193
O 0.8888419867 2.4864568225 -0.4559004775
O -1.6443150895 1.8387546088 0.7103277018
O -2.7047524215 -0.8988896818 -1.1237239425
H -3.2305750047 -0.2157139538 0.7608131833
H -2.6857007693 -1.9260542048 0.6716786911
H 1.4210456486 -2.6198673016 -0.8968041636
H 3.4209657533 -0.3326940166 -0.2284399551
H 1.8396845653 2.6705545891 -0.440343614
H -1.4281144186 2.7259586362 0.3848354459
H -3.5994739558 -1.1986494067 -1.3380298047
*
