! wb97x-v def2-tzvp def2/J RIJCOSX DEFGRID2 scfconv7 GCP(DFT/TZ) printgap
%output
    printlevel normal
end
%cpcm
    smd true
    smdsolvent "water"
end
* xyz 0 1
C -0.5251342407733389 1.4361195265063365 0.00010351783867231374
N -0.4079419212999041 -0.016116970630202405 -9.393643482438137e-05
C -1.6559831628762367 -0.7694562906232253 -0.00028305479867904643
C 0.7791374346159546 -0.6390914659266701 -0.0011929805050580119
O 1.8904190220931527 -0.08309142821888987 -0.0008481008702420916
H -1.0688568822173146 1.768481193858713 -0.891086360329249
H 0.4672652853922008 1.8870819632621476 0.004687255775491828
H -1.0765545096104194 1.7673886595281312 0.8869192750642125
H -2.2478049656946673 -0.5232721001739505 -0.8888086745565992
H -2.246377961302538 -0.5269779340324433 0.890213985385996
H -1.4418906384898933 -1.8402170542927203 -0.002759578267478621
H 0.6871035605919057 -1.7378388008684584 0.0010865705750998905
*
