! wb97x-v def2-tzvp def2/J RIJCOSX DEFGRID2 scfconv7 GCP(DFT/TZ) printgap
%output
    printlevel normal
end
%cpcm
    smd true
    smdsolvent "water"
end
* xyz 0 1
C -0.3788369612707491 1.4022051189259932 -0.10399115050834677
C 0.00011553974306044092 0.00010509989186495598 0.373305896979135
C -1.0248869458576269 -1.0288799419777825 -0.10393200930173783
C 1.4036882659798608 -0.3733460558914968 -0.10400567989365297
H 0.33658666257349923 2.151632620366214 0.2519682787400115
H -0.3897290992070827 1.4424561518559431 -1.2003619583422864
H -1.3743942044486597 1.688765383853433 0.25224378546859305
H 0.0003033563567372044 0.0002888784736823932 1.4722129619369366
H -1.0540288722456415 -1.0581492461977047 -1.2002896501536717
H -2.031572392388923 -0.7836205261998833 0.2519765177703822
H -0.7757960032151002 -2.0346133503831973 0.25200774470219794
H 1.6941849550125918 -1.3677782437765962 0.2521896896708937
H 2.1503172256423473 0.34499038763583467 0.2519721043988795
H 1.443991205918551 -0.38404663018930996 -1.200377319104499
*
