! wb97x-v def2-tzvp def2/J RIJCOSX DEFGRID2 scfconv7 GCP(DFT/TZ) printgap
%output
    printlevel normal
end
* xyz 0 1
C -2.080552200860966 -0.017634696518447266 0.09155130124267888
C -0.7650509860704753 0.6649821306206383 -0.2766475084499681
C 0.48212907160712914 0.020023431688543075 0.342677957064896
C 0.6490482326846105 -1.4375392046511681 -0.0893624320827852
C 1.7289098016190447 0.8272224105066465 -0.02106480417239082
H -2.935843919076569 0.548161787341452 -0.2919644920266054
H -2.192030441032452 -0.09353098188789069 1.179475241462994
H -2.1444685096629557 -1.0285302956671194 -0.3226787267512474
H -0.647847365341164 0.6735823174682866 -1.3698221706975962
H -0.8049489588934966 1.7157873268279573 0.03887515251841685
H 0.36347502849122165 0.042752614210880245 1.4361709272779093
H 1.5702271752377588 -1.8633590062810883 0.32308987638079056
H 0.7067106650752252 -1.5083955840990895 -1.1829786274672733
H -0.18332354279454083 -2.063945547169576 0.2453457824625427
H 1.6373604494763918 1.8704250834025258 0.30116116671518733
H 1.883641292041055 0.8236273330386648 -1.10726519147257
H 2.6261890710000513 0.4064332089839121 0.4455067399660861
*
