  15
        -26.16280888
 C          2.0693665974       -1.0295366776        0.0001569370
 C          2.3305047982        0.3407996386       -0.0000190514
 C          1.3012162478        1.2554502799        0.0000105903
 C         -0.0283529156        0.8243659922       -0.0000577933
 C         -0.3002753594       -0.5636968869       -0.0002777514
 C          0.7699130976       -1.4728339326       -0.0001721194
 C         -1.6566874009       -1.0459508415       -0.0001081517
 O         -2.6621614144       -0.3425249865        0.0001717699
 O         -0.9970838290        1.7443620632        0.0001190659
 H          2.8854140197       -1.7334357117        0.0009733088
 H          3.3509446537        0.6905841880       -0.0005231724
 H          1.4888419348        2.3172202427        0.0000949056
 H          0.5469922138       -2.5289275770        0.0015127467
 H         -1.7628946907       -2.1433161525       -0.0002633311
 H         -1.8767166013        1.3009549683       -0.0008421219
  15
        -26.15872867
 C          1.8246683139       -1.1318587347       -0.0000181886
 C          2.3136395277        0.1696525798        0.0000126867
 C          1.4504722214        1.2481067753        0.0000000223
 C          0.0714555836        1.0517343692       -0.0000418687
 C         -0.4309914268       -0.2653906568       -0.0000283445
 C          0.4644223499       -1.3413243248        0.0000021408
 C         -1.8617929322       -0.5054964192       -0.0000114309
 O         -2.3936857733       -1.6016775555       -0.0000083578
 O         -0.7956898920        2.0802885152        0.0000475009
 H          2.5048668216       -1.9679892626        0.0000688947
 H          3.3784367490        0.3431609176        0.0002475546
 H          1.8451273177        2.2532566138        0.0000459792
 H          0.0441320194       -2.3358035337       -0.0000053047
 H         -2.4798811016        0.4081567188       -0.0000889203
 H         -0.3276176900        2.9319952411        0.0001231295
  15
        -26.15533849
 C          2.0585894043       -1.0443810459       -0.0000538683
 C          2.3401904314        0.3173417143       -0.0002130427
 C          1.3183642463        1.2441670809       -0.0001791432
 C         -0.0161529541        0.8369731264        0.0001516559
 C         -0.3099083282       -0.5444290907        0.0000674911
 C          0.7477644651       -1.4628348557        0.0001920908
 C         -1.6722321121       -1.0439746813       -0.0001534750
 O         -2.6987432380       -0.3929520999       -0.0002550584
 O         -1.0234970528        1.7200318982        0.0003631626
 H          2.8606019480       -1.7645050678       -0.0002342916
 H          3.3644568493        0.6554546225        0.0004901754
 H          1.5472057684        2.2995556236       -0.0001132406
 H          0.5101949070       -2.5158765639        0.0008177929
 H         -1.7291073766       -2.1508359980       -0.0001157316
 H         -0.6935883598        2.6342791939       -0.0003169783
  15
        -26.15402894
 C          1.8119050241       -1.1219435527        0.0000265652
 C          2.3061445945        0.1802046902       -0.0000511153
 C          1.4440732814        1.2546471070       -0.0000249573
 C          0.0599790654        1.0662338114        0.0000100109
 C         -0.4497456052       -0.2483972467       -0.0000281784
 C          0.4539522500       -1.3247506519        0.0000068455
 C         -1.8674312406       -0.5482189007       -0.0000257393
 O         -2.3517629628       -1.6660103259       -0.0000490596
 O         -0.6908807539        2.1813310427        0.0000676848
 H          2.4886838780       -1.9607898178        0.0000396655
 H          3.3708671131        0.3524290868        0.0003509190
 H          1.8107263265        2.2685969023        0.0001674166
 H          0.0319867290       -2.3188393135        0.0001635150
 H         -2.5536316399        0.3201704175       -0.0000560904
 H         -1.6428653415        2.0029961519        0.0000704927
