! pbe def2-sv(p) def2/J RI DEFGRID1 loosescf d4 GCP(DFT/SV(P)) printgap
%output
    printlevel normal
end
* xyz 0 1
C -2.3908664505 0.0650102506 -0.0080611098
C -0.9242493506 0.4749052389 0.054717405
C 0.0009744827 -0.694888864 -0.1157927521
C 1.3236071431 -0.6241319529 -0.0862245801
C 2.1054385331 0.6330290863 0.1282823902
H -3.0353636819 0.9319346459 0.1184402633
H -2.6198401658 -0.6511635294 0.7782988778
H -2.617018614 -0.3937314112 -0.9682729283
H -0.7201045881 1.2150470689 -0.7254997792
H -0.7218718188 0.9590080107 1.0145631572
H -0.4767124204 -1.6531029477 -0.2680303453
H 1.9062353064 -1.5281225625 -0.2028462942
H 2.2186128228 0.8269446952 1.1954378828
H 1.5986764821 1.4877082476 -0.313961147
H 3.0981733633 0.5461387812 -0.3054574722
*
