! pbe def2-sv(p) def2/J RI DEFGRID1 loosescf d4 GCP(DFT/SV(P)) printgap
%output
    printlevel normal
end
* xyz 0 1
C -2.3953517472 -1.1616586071 -0.2471922254
C -1.0559565822 -0.6087947101 0.2702088405
H -1.0694510919 -0.5446990936 1.3712809959
C -0.7717032445 0.798948715 -0.2872931293
H -0.7855146974 0.741808947 -1.3897168411
C 0.6240528581 1.2410036539 0.1666302012
H 0.6153569643 1.3661716927 1.2562158774
C 1.6770550585 0.1790561181 -0.1992840815
H 1.7894174856 0.1251190669 -1.2939750949
C 1.2439298196 -1.2118689865 0.2829982708
H 1.2834368365 -1.2177543889 1.3920834826
O -0.0654824153 -1.5265871061 -0.1434223533
O 2.0923644681 -2.1495147778 -0.2606029135
O 2.9068574102 0.481287806 0.4044771588
O 1.0081596306 2.4936219808 -0.3405391044
O -1.7036036239 1.7426894834 0.1703424497
O -3.4972328735 -0.3977639179 0.1734264707
H -2.4795176145 -2.207383633 0.0624693877
H -2.3893522254 -1.1282978702 -1.3390269034
H 1.776019293 -3.0422336482 -0.0475113857
H 3.0945161358 1.421739714 0.2487501356
H 0.7751695402 2.5592731406 -1.2779304913
H -2.6003555619 1.3888264912 0.0224489372
H -3.6940321744 -0.5848910872 1.1024956076
*
