! pbe def2-sv(p) def2/J RI DEFGRID1 loosescf d4 GCP(DFT/SV(P)) printgap
%output
    printlevel normal
end
* xyz 0 1
C -2.5470929681 -0.67435087 -0.3808849091
C -1.1713118808 -0.318374812 0.1776911498
H -1.2417323899 -0.2849156188 1.2751431306
C -0.695264487 1.0503686495 -0.3315068513
H -0.6676784423 1.0307455904 -1.4328290433
C 0.7275250785 1.3218933924 0.1752417655
H 0.7047451821 1.4113348971 1.2731380142
C 1.646567513 0.1549459195 -0.1934281941
H 1.7329756215 0.1022836527 -1.2903565999
C 1.0240693936 -1.1618323192 0.3175458588
H 0.9929375981 -1.1293835098 1.4216983391
O -0.2629477312 -1.3303622971 -0.2131450902
O 1.7976139142 -2.2536673622 -0.0403638566
O 2.9055070088 0.3832175147 0.3883342808
O 1.1582561963 2.5318345989 -0.3985557734
O -1.5912395985 2.0312106306 0.1156506071
O -3.102539161 -1.7016236075 0.405629291
H -2.421040862 -0.9988406473 -1.4202055166
H -3.1649260808 0.2299697668 -0.3403847214
H 1.4631153735 -2.6128288902 -0.8772631749
H 3.4352717892 -0.42558728 0.3194761601
H 2.0854072309 2.6747243279 -0.1575619716
H -1.2151094167 2.9008554168 -0.0937997881
H -3.9627298449 -1.9516903235 0.0391333938
*
