! pbe def2-sv(p) def2/J RI DEFGRID1 loosescf d4 GCP(DFT/SV(P)) printgap
%output
    printlevel normal
end
* xyz 0 1
C -1.7822485523 -1.3394226671 -0.5232331336
C -1.1224854354 -0.4646859415 0.5585765914
H -1.8353630948 -0.3725069195 1.3862370123
C -0.7966539851 0.9584886615 0.0327128909
H -0.9832574335 1.0189484565 -1.046062949
C 0.6909438711 1.2617610006 0.2462625895
H 0.909036349 1.3142751854 1.3258239322
C 1.513288419 0.1133380866 -0.3524550314
H 1.242705577 -0.0031735226 -1.4110020483
C 1.1711075425 -1.1972991462 0.3839364546
H 1.9551112874 -1.3951117017 1.1313668556
O 0.0012983726 -1.0996441638 1.1567189071
O 1.1100249705 -2.2155328306 -0.5654767109
O 2.8700310927 0.4530448337 -0.2188860564
O 0.9972702609 2.4819633301 -0.3725838636
O -1.6412482458 1.9277693974 0.5928462092
O -3.1025871107 -0.9408130396 -0.790671761
H -1.8525421071 -2.3651590849 -0.1551303974
H -1.1742151649 -1.3335462388 -1.4376749203
H 1.0157787688 -3.077666383 -0.1327740306
H 3.4177549 -0.1545654378 -0.7352853074
H 1.9623500444 2.5809323411 -0.3809127606
H -1.3774810633 2.1160992913 1.5046816972
H -3.1214539697 -0.0023530214 -1.0262236867
*
