! wb97x-v def2-tzvp def2/J RIJCOSX DEFGRID2 scfconv7 GCP(DFT/TZ) printgap
%output
    printlevel normal
end
* xyz 0 1
C 1.7086076936512486 2.8195625266271773 0.9366552918971911
C 1.866350505493129 1.657384368640727 -0.017164072787977044
C 2.7868238868500077 0.5311267555905516 0.5160135311359705
C 1.9948505780840762 -0.715938772658537 0.2448439399527715
C 2.3273138687117743 -2.060285684513571 0.3134154658413317
C 1.3468382840782496 -3.0173255269402985 0.032054232345295364
C 0.05130084730319481 -2.6273378643618166 -0.30636686507654465
C -0.2735067372070495 -1.2779268026140609 -0.3785688296343951
C 0.7035680189275135 -0.33006586346201705 -0.10487531149358753
O 0.5122838703917437 1.0142162165643358 -0.14058640799711417
O -1.5477805684510408 -0.8909064528233095 -0.8034486102327546
C -2.319561305883544 -0.2107149418837022 0.12962566069655926
O -2.005290722405021 -0.10314670666311317 1.308846341637624
N -3.43173290774305 0.26639064270749224 -0.4379108557886356
C -4.411511398872599 1.0096905581199473 0.3435911713189255
C 2.2583658305200323 2.094575974926766 -1.4165073725505661
H 0.9949496781905812 3.550201768663196 0.544242962748409
H 1.3653524817013436 2.47215372813834 1.9153493787549924
H 2.6749991332206617 3.3168201179387817 1.0649472600646865
H 3.7539565574880718 0.5406000189389392 0.005457199817699266
H 2.971166097624817 0.6479932139615948 1.5905600230357066
H 3.333712680296555 -2.3659988633426066 0.5820540534306998
H 1.5898575848024108 -4.073442214373775 0.0781890332477109
H -0.7161924384938515 -3.3627831415600093 -0.5248976351046356
H -3.55715333477476 0.15504962350908597 -1.4323266392376568
H -3.9957470471664163 1.9538434989581601 0.7102501807406761
H -4.754313018051471 0.41898067739621736 1.197923432750445
H -5.265629042261887 1.2263050943676788 -0.2984827083577924
H 3.2365238314433253 2.5845953811914884 -1.3886790066508785
H 1.5257347971119442 2.8005644448286935 -1.8183731636457519
H 2.3237329048382604 1.2295178190472504 -2.0847332400041783
*
