! wb97x-v def2-tzvp def2/J RIJCOSX DEFGRID2 scfconv7 GCP(DFT/TZ) printgap
%output
    printlevel normal
end
%cpcm
    smd true
    smdsolvent "water"
end
* xyz 0 1
C 2.0280022755151004 0.04230093769049917 -0.0003761418560892212
C 0.741205111850552 -0.766230394153501 0.0004792648454339271
C -0.4965363555120516 0.08452499408541123 -7.881365584863092e-06
O -0.5155820956328008 1.3007877432810127 -0.00029806379798741366
O -1.6819759823734002 -0.5790146226439457 -0.0002214869016104633
H 2.0919008487233137 0.680745905171817 0.8848510955544896
H 2.8895423623790917 -0.6301139263558978 0.00035973748585674134
H 2.09192508159582 0.6788391359999261 -0.8869767169894616
H 0.6829654019561164 -1.4268854383059406 -0.8743217838582884
H 0.6831650554288431 -1.4252451243625435 0.8765414498328452
H -1.5329605430087219 -1.5379978777866457 -1.779694211607095e-05
*
