! r2scan-3c def2/J RI DEFGRID2 scfconv6 printgap
%output
    printlevel normal
end
%cpcm
    smd true
    smdsolvent "water"
end
* xyz 0 1
C -2.5819438656 0.0080523558 -0.0178161941
C -1.8867913 1.1863268126 0.201582004
C -0.5031967083 1.1887576104 0.2125175959
C 0.1962479341 0.0023151384 0.0088364425
C -0.5089061478 -1.1814971789 -0.1888656661
C -1.8910880352 -1.1775752028 -0.2103137459
C 1.6851857278 -0.059933563 0.0247653726
O 2.2891738762 -1.0626387467 0.4057313295
N 2.3287477728 1.0354012546 -0.405744022
H -3.6609815396 0.0118719959 -0.0304117156
H -2.4250113707 2.1070404755 0.3669439613
H 0.0246631699 2.1086392092 0.4119931007
H 0.0495433573 -2.0959010494 -0.3261760972
H -2.4284878295 -2.0992867381 -0.372337383
H 1.8319816165 1.8205047567 -0.7885533365
H 3.3356353824 1.0263066168 -0.4293080235
*
