! pbe def2-sv(p) def2/J RI DEFGRID1 loosescf d4 GCP(DFT/SV(P)) printgap
%output
    printlevel normal
end
* xyz 0 1
C -2.1637279419 -1.2675081813 0.0316331829
C -0.8780530238 -0.5666463013 0.4959789057
H -1.0142242176 -0.2633578213 1.5445639118
C -0.6089952323 0.7040181871 -0.3258451832
H -0.6853825532 0.454563757 -1.3972000597
C 0.7983318926 1.290566926 -0.0761760772
H 0.7092727405 2.0555448986 0.7026289584
C 1.8118568206 0.2204623154 0.3935517758
H 2.7894980011 0.4847211257 -0.0213085685
C 1.3829986807 -1.1482329332 -0.1474021845
H 2.0910922164 -1.9200078463 0.1856094874
O 0.1607097747 -1.5456411308 0.4266124437
O 1.3241219636 -1.0703862255 -1.5358945212
O 1.9859144414 0.1788419132 1.784134195
O 1.277203713 1.9635270049 -1.2113057784
O -1.5398412651 1.7057614654 0.0019328649
O -3.2699812032 -0.4436970034 0.3182370845
H -2.2265861295 -2.2229570514 0.5647841358
H -2.0923278113 -1.4654693778 -1.0455014673
H 1.2333951361 -1.9549645941 -1.9222382549
H 1.2307773577 -0.2621225112 2.1995660847
H 1.3836402093 1.322855324 -1.9319570323
H -2.4294986113 1.3104078489 0.0289528873
H -4.0879565539 -0.9100866043 0.0954092083
*
