! pbe def2-sv(p) def2/J RI DEFGRID1 loosescf d4 GCP(DFT/SV(P)) printgap
%output
    printlevel normal
end
* xyz 0 1
C -3.2419033223 1.0213961126 -5.405e-05
C -1.9059325954 0.3428370019 -2.05437e-05
C -1.8151214889 -1.0432412534 0.0013943679
C -0.5799860591 -1.6588079604 0.0012492077
C 0.6032896389 -0.9288296305 -0.0003598803
C 0.5267159932 0.4693419711 -0.0013699485
C -0.7300592043 1.0716429956 -0.0012112875
O 1.5696395607 1.3594965195 -0.0032635431
C 2.9112002109 0.9085210751 0.0043022047
O 1.814174064 -1.575591783 -0.0010011432
H -3.8121726562 0.7305281032 0.8802550025
H -3.1263081647 2.101135968 -0.0011267454
H -3.8128876411 0.7288627292 -0.8793484631
H -2.7115529453 -1.6436259178 0.0023909235
H -0.5210761018 -2.7380853801 0.0021127944
H -0.7483952459 2.1506955643 -0.0022027205
H 3.1383932417 0.3162860764 -0.8838997139
H 3.1298154163 0.3212232579 0.8979372193
H 3.509672771 1.8176498188 0.0046677923
H 1.6695862159 -2.5334951506 7.7436e-05
*
