! wb97x-v def2-tzvp def2/J RIJCOSX DEFGRID2 scfconv7 GCP(DFT/TZ) printgap
%output
    printlevel normal
end
* xyz 0 1
C 1.7238282981587307 0.3050062991420143 -7.148900808431714e-05
C 0.6818228739538076 -0.5083597141905305 0.0002917486160151537
Cl -0.9792596867943852 0.08027977176419977 -4.890274107715526e-05
H 2.717779336953631 -0.13210916744928142 -5.336581767665811e-05
H 1.6313877234168548 1.385609148999625 0.0002768109303263552
H 0.7368199358636126 -1.5914741216198027 -0.00018029182850898954
*
