! wb97x-v def2-tzvp def2/J RIJCOSX DEFGRID2 scfconv7 GCP(DFT/TZ) printgap
%output
    printlevel normal
end
%cpcm
    smd true
    smdsolvent "water"
end
* xyz 0 1
C -1.8540705305384686e-06 -1.3941863388498437 5.7569667490120025e-05
C 1.201779661444804 -0.6982630101139579 5.1344823317449185e-05
C 1.2017797761449858 0.6982616101132307 2.6198470144982308e-05
C -1.994655738321229e-06 1.3941851394934663 4.562923925238619e-06
C -1.2017862630408036 0.6982624194258815 1.1636533354626965e-05
C -1.2017860635340365 -0.6982641422908438 4.066621730774975e-05
Cl -2.6903154374636364 -1.5987420030868076 5.524753042968389e-05
Cl -2.6903153998289713 1.5987407502944806 -1.6105570188180795e-05
Cl 2.6903054960722694 1.5987408662868494 1.3790474957680087e-05
Cl 2.6903058201609626 -1.5987414568418752 7.754371789959685e-05
H -3.448091378014561e-06 -2.477355869951005 7.490244991226311e-05
H -3.6787622271538205e-06 2.4773548600478423 -1.9991656140567594e-05
*
