! wb97x-v def2-tzvp def2/J RIJCOSX DEFGRID2 scfconv7 GCP(DFT/TZ) printgap
%output
    printlevel normal
end
* xyz 0 1
C -3.4283803864856663 -0.34649601981960976 1.6688134066571898
N -2.3333437191547 0.027903900796865368 0.7804867201392696
C -2.384738185518264 -0.2714461964368589 -0.5222819508405614
O -3.283257843120744 -0.8958959312421388 -1.07516253598597
O -1.3334833232799985 0.16330422612311862 -1.3135331440625544
C -0.21647101871826188 0.7711764210342035 -0.721738795299815
C -0.166549770024579 2.138479078175476 -0.6388474027214223
C 0.9818877419571231 2.7570165620712843 -0.10144563055129237
C 2.041933014498334 1.9995581747096267 0.3352060074005979
C 2.0044653982175693 0.5857466614866367 0.2540274700660653
C 0.8478780280943184 -0.058749160170367534 -0.29121086042529337
C 0.8094256318631368 -1.470732066039526 -0.375553537330242
C 1.875888616830365 -2.2178921201289192 0.06629735619643679
C 3.019395395997669 -1.5895963658140293 0.6053245420190269
C 3.0824239134259734 -0.21965053368084636 0.6961379492544236
H -3.613019566049312 -1.42252107245783 1.6172457644067493
H -4.350060351813187 0.18477787525621128 1.410883267431982
H -3.1425859720060894 -0.08693666590033408 2.6884080243085333
H -1.594611780120885 0.6201572820937026 1.1302349926612072
H -1.0089217900708694 2.7279428979725733 -0.985389984732767
H 1.018186272874661 3.839394724695367 -0.037915838553880955
H 2.926209413813205 2.4742176078777782 0.7496367824102845
H -0.06691158487098017 -1.9573739283904112 -0.7907792920929528
H 1.8412056194708608 -3.3005125313131516 -0.00044945782331512485
H 3.8517431305465517 -2.1959689135514457 0.9479404493114927
H 3.9604920179893606 0.2683701477985931 1.1089988565942956
*
