! pbe def2-sv(p) def2/J RI DEFGRID1 loosescf d4 GCP(DFT/SV(P)) printgap
%output
    printlevel normal
end
* xyz 0 1
C -2.540701143 -0.9491308731 0.3048237028
C -1.1203015302 -0.4575211534 0.6206013586
H -1.0018939541 -0.368279661 1.7116627735
C -0.8358619286 0.9204001164 -0.0120298441
H -1.0359213054 0.8583099664 -1.0893577923
C 0.6441792025 1.2869695861 0.2029440665
H 0.7980145177 1.4418639485 1.2781605068
C 1.5551185674 0.1489155378 -0.2928926017
H 1.4461898462 0.0221324852 -1.3760523377
C 1.1270093007 -1.1766117745 0.3682145317
H 1.2811137282 -1.0987409906 1.4670917832
O -0.2343046734 -1.4412557482 0.1178032638
O 1.867520891 -2.2048828483 -0.1720428189
O 2.9110968794 0.4302139825 -0.0938903796
O 0.9825063602 2.5161074988 -0.3792599092
O -1.6205978682 1.9181088085 0.5957717342
O -2.7988549118 -0.987457195 -1.0742402707
H -3.2662340596 -0.2624577787 0.7421585429
H -2.6695099673 -1.9400903104 0.7546496388
H 1.5065727821 -3.0584392046 0.1167008001
H 3.0807850383 0.6286369962 0.838435824
H 0.9057604805 2.4611067597 -1.3428813278
H -2.473126402 1.9879028089 0.1454254376
H -2.2007177738 -1.6313397797 -1.4798585852
*
