! pbe def2-sv(p) def2/J RI DEFGRID1 loosescf d4 GCP(DFT/SV(P)) printgap
%output
    printlevel normal
end
* xyz 0 1
C 1.2902616589 4.37963e-05 2.12737e-05
C -0.1549003924 -0.0001499192 -8.60728e-05
C -1.3517615875 6.48534e-05 4.72506e-05
H 1.6598493045 -0.958867455 -0.359743891
H 1.6594986776 0.7912706028 -0.6504697993
H 1.6594531667 0.1679955895 1.0104474942
H -2.4001504653 9.30344e-05 -2.46944e-05
*
