! pbe def2-sv(p) def2/J RI DEFGRID1 loosescf d4 GCP(DFT/SV(P)) printgap
%output
    printlevel normal
end
* xyz 0 1
C -3.2061719915 -0.2960423552 -0.9728948156
C -1.7286134895 -0.226364812 -0.5945006595
H -1.1480177628 -0.1618720299 -1.5200426385
C -1.3034014112 -1.477508944 0.1901401715
C -0.1789172814 -1.198910775 1.1956688914
C 0.7860760725 -0.1047370772 0.730929402
H 1.5313123127 0.0849301621 1.5127567423
C 0.0122667621 1.1844885002 0.5673841739
O 0.5181363677 2.2753013762 0.7601046141
C -1.4419588519 1.0349985563 0.2182118213
C 1.5734036822 -0.4972935332 -0.5462152794
C 2.1703057033 0.7243044958 -1.2417588841
C 2.6881222821 -1.4796394506 -0.1900813874
H -3.8285826868 -0.3085948937 -0.081067953
H -3.4879988729 0.5633157915 -1.5766689127
H -3.4052420902 -1.1981688784 -1.5458749035
H -2.1629978631 -1.8678575549 0.7372768644
H -0.99386208 -2.2517050485 -0.5126478894
H -0.610384967 -0.8777112024 2.145974843
H 0.3720542543 -2.1186985206 1.3902415569
H -1.9911347583 0.996360215 1.163765546
H -1.7727395301 1.933288719 -0.3068789036
H 0.8908256315 -0.9903043722 -1.2416316909
H 2.806505168 0.4110029462 -2.0659570247
H 2.7674062107 1.3083428596 -0.5444547906
H 1.3922440927 1.374001264 -1.6376332184
H 3.1990519925 -1.8034913796 -1.0934432864
H 2.2944649467 -2.359563881 0.310496839
H 3.4165761627 -1.0052142114 0.4638196855
*
