! r2scan-3c def2/J RI DEFGRID2 scfconv6 printgap
%output
    printlevel normal
end
%cpcm
    smd true
    smdsolvent "water"
end
* xyz 0 1
C -0.4589895111 -0.9669990795 0.0040580479
C 0.745918275 -0.0481606754 0.0003223101
F 0.801064857 0.7565935532 1.0709636913
F 0.7997193284 0.7478553334 -1.076776002
F 1.8927535568 -0.7527817603 0.0023521106
Cl -1.9438605261 0.0309413657 -2.53285e-05
H -0.4477969184 -1.5841308028 -0.8943150269
H -0.4473927922 -1.5754018412 0.9082294579
*
