  17
        -27.19624563
 C         -2.8195627789        1.0439877285       -0.0007497962
 O         -2.2173223048       -0.2363259241        0.0006234001
 C         -0.8559529153       -0.3188242881        0.0002761461
 C         -0.3258646995       -1.6110110887        0.0001107159
 C          1.0403088306       -1.7927256010       -0.0002323081
 C          1.9013400753       -0.7072359924       -0.0004241782
 C          1.3758642974        0.5769431754        0.0000077412
 C         -0.0029103700        0.7740601201        0.0002092162
 O          2.1609029882        1.6879228949        0.0002110350
 H         -2.5440901291        1.6085176153       -0.8951865332
 H         -2.5447512137        1.6099294064        0.8931084355
 H         -3.8906177123        0.8557963380       -0.0011297069
 H         -1.0070181900       -2.4460541131        0.0004654898
 H          1.4450399828       -2.7927465685       -0.0005019212
 H          2.9697455992       -0.8599652862       -0.0008392178
 H         -0.3633330139        1.7893154961        0.0004385836
 H          3.0979976816        1.4410545632       -0.0000381105
  17
        -27.19615315
 C         -3.1842566882       -0.3313185408        0.0016782459
 O         -2.0887826761        0.5640969722       -0.0012517853
 C         -0.8239385468        0.0490729460       -0.0007173111
 C         -0.5142107576       -1.3050173161       -0.0002682457
 C          0.8160531021       -1.6959067187        0.0003035679
 C          1.8362235003       -0.7687378547        0.0004460321
 C          1.5259916653        0.5904775812       -0.0000562987
 C          0.2010927252        0.9938788361       -0.0006932712
 O          2.5518269768        1.4811256276        0.0002693189
 H         -4.0695267245        0.3005423701        0.0023890201
 H         -3.1789642499       -0.9583958127        0.8969503117
 H         -3.1820481756       -0.9606763629       -0.8919480526
 H         -1.2868641866       -2.0554261188       -0.0004273973
 H          1.0546761135       -2.7481856890        0.0004880530
 H          2.8717995482       -1.0668581128        0.0009219903
 H         -0.0692157925        2.0388793377       -0.0010617333
 H          2.2144271333        2.3897189623        0.0000284420
  17
        -27.19565246
 C         -3.1866980370       -0.3082329974        0.0002669904
 O         -2.0856289798        0.5808472990       -0.0001833041
 C         -0.8244558748        0.0589143298       -0.0001897634
 C         -0.5253118295       -1.2994992305       -0.0002955416
 C          0.7997948494       -1.7011034782       -0.0002085904
 C          1.8297588186       -0.7813656033        0.0000117828
 C          1.5309025013        0.5784119382        0.0001383235
 C          0.2077254725        0.9927194487        0.0000500763
 O          2.4961157469        1.5357688036        0.0002358792
 H         -3.1870018217       -0.9360081073        0.8950713731
 H         -3.1874262473       -0.9364799641       -0.8942235363
 H         -4.0678746020        0.3293044521        0.0003033955
 H         -1.3042961339       -2.0433339177       -0.0004130637
 H          1.0295290895       -2.7555671771       -0.0002940185
 H          2.8566486139       -1.1138865324        0.0000938660
 H         -0.0266133751        2.0445894263        0.0001567402
 H          3.3763869308        1.1295494468        0.0011724857
  17
        -27.19554925
 C         -2.8306970821        1.0205570183        0.0002449357
 O         -2.2152944314       -0.2536416187       -0.0000555543
 C         -0.8525315806       -0.3260620827       -0.0001448603
 C         -0.3135421911       -1.6125473569       -0.0001390769
 C          1.0556141569       -1.7845790223        0.0000797232
 C          1.9063270188       -0.6942003942        0.0001811357
 C          1.3718072532        0.5885278641       -0.0000290478
 C         -0.0069246526        0.7757649827       -0.0001791643
 O          2.2335006604        1.6401959856       -0.0000441989
 H         -3.8997681686        0.8211936205       -0.0000503771
 H         -2.5638422710        1.5883688146       -0.8949772389
 H         -2.5640891752        1.5877661577        0.8959382629
 H         -0.9884976456       -2.4526344759       -0.0001745184
 H          1.4677920452       -2.7813685198        0.0002851421
 H          2.9774127141       -0.8126586889        0.0004505130
 H         -0.4025168891        1.7796295884       -0.0002147314
 H          1.7513103721        2.4810219697        0.0001638187
