! pbe def2-sv(p) def2/J RI DEFGRID1 loosescf d4 GCP(DFT/SV(P)) printgap
%output
    printlevel normal
end
* xyz 0 1
C -2.1034664978 -1.0430722393 -0.1740899234
C -1.0928205848 -0.424403566 0.8091209599
H -1.5685495946 -0.438348705 1.7972475009
C -0.7622740807 1.0525055805 0.496793956
H -1.6418881521 1.4966034026 0.0176575389
C 0.4649938522 1.2532991242 -0.4210126361
H 0.8100394776 2.2867322885 -0.2475146389
C 1.6078224699 0.3167509576 -0.0040619278
H 2.3863834822 0.3671359495 -0.7782680911
C 1.1019024939 -1.1386811717 0.0708777375
H 1.8838989422 -1.7838413495 0.4935224112
O 0.05354879 -1.2470863487 1.005561972
O 0.8066956054 -1.6669218192 -1.1738380453
O 2.0807231359 0.7616215483 1.2438092429
O 0.2231752355 1.0393058031 -1.7846866828
O -0.5790843513 1.7814102451 1.6882052511
O -1.8092722395 -0.6950901604 -1.5089393483
H -3.100577247 -0.675422416 0.0971588413
H -2.0679646258 -2.1299436844 -0.0346326071
H 0.1378513845 -1.1035473902 -1.6179463922
H 2.8363709562 0.2261385324 1.5238597302
H -0.4959270544 1.6116377631 -2.0865200095
H 0.2721286267 1.5231638474 2.0787485602
H -2.4256553853 -1.150929289 -2.0987628594
*
