! wb97x-v def2-tzvp def2/J RIJCOSX DEFGRID2 scfconv7 GCP(DFT/TZ) printgap
%output
    printlevel normal
end
%cpcm
    smd true
    smdsolvent "water"
end
* xyz 0 1
C -3.4015248746918956 0.605877376354334 0.000908570466444724
O -1.9613525249894388 0.7776391351207492 0.0012645993547774183
C -1.2382145257984198 -0.3568503450792182 -0.0006452351719880006
O -1.7449640602808867 -1.4689580784404563 -0.002275473175869982
C 0.2226801506687805 -0.10645813320433958 -0.00016076056145246934
C 1.08159747118133 -1.211204722842733 0.00033580092724614307
C 2.4574508846293694 -1.023156069990629 0.000573481010359342
C 2.9851907763508296 0.2668621709449209 0.00023754695178977025
C 2.1332840691694845 1.3694569632282 -0.00028532902981873544
C 0.7554763426357995 1.18828059552227 -0.000428997608361684
H -3.810064195833968 1.615571035249135 0.00600917512086511
H -3.716023141197844 0.061141619677157 0.8941193316652629
H -3.716405482601033 0.07005845589517119 -0.8975724206943618
H 0.6648588005407922 -2.2122419021583477 0.0005462749056347517
H 3.1199143147781245 -1.8823689545126325 0.0010049280331454991
H 4.060590291262633 0.4128674701533047 0.00037668205138326297
H 2.5433957136498244 2.3738943943775523 -0.0005965185498596506
H 0.09817950329236765 2.049357468910383 -0.0008697967836380431
*
