! pbe def2-sv(p) def2/J RI DEFGRID1 loosescf d4 GCP(DFT/SV(P)) printgap
%output
    printlevel normal
end
* xyz 0 1
C -2.7300774166 0.9451542237 1.3127214223
C -1.6568843491 0.5025309003 0.3706759523
C -0.8647009141 1.3197536652 -0.3126021656
C 0.18499405 0.7682673519 -1.2210712327
C 0.9557659907 -0.4245438678 -0.5979615125
H 1.24509052 -1.0820854613 -1.4220507356
C 0.0927091798 -1.2372627526 0.3851631552
C -1.4096526005 -0.9806396618 0.216088422
H -1.9504341249 -1.5365791989 0.9995229669
O -1.8069569104 -1.4802981909 -1.0549954335
C 2.217726292 0.0781428093 0.059335004
C 3.4123881067 -0.247302677 -0.4108296366
C 2.0609894798 0.9833575675 1.2462176291
H -2.8008412141 2.0292860586 1.3302649619
H -2.5114942436 0.5899606737 2.3195827074
H -3.6953211636 0.5341989987 1.0201374301
H -0.9756025442 2.3932703632 -0.2512053014
H -0.3020588709 0.4085403527 -2.1306981567
H 0.8955023508 1.5440853343 -1.5096136569
H 0.2838427243 -2.3011102603 0.2428320269
H 0.344795085 -0.9810960707 1.4133341218
H -2.7439674295 -1.2900702514 -1.1896475034
H 4.3196793501 0.1252074392 0.0349526589
H 3.5344551401 -0.9027769741 -1.2565862311
H 1.1458025838 1.5647589988 1.1684221658
H 2.0127337661 0.3987142039 2.1645266888
H 2.9105244195 1.6564152491 1.3274862795
*
