! pbe def2-sv(p) def2/J RI DEFGRID1 loosescf d4 GCP(DFT/SV(P)) printgap
%output
    printlevel normal
end
* xyz 0 1
C -3.3901611623 -0.6762111078 -0.3608059198
C -1.8927346971 -0.3915124122 -0.4441904213
H -1.5968158541 -0.4354994707 -1.4983274593
C -1.077735001 -1.4257629417 0.3531651517
C -0.034584607 -0.8034143677 1.2875358924
C 0.7593775688 0.3646103505 0.6909953356
H 1.1003846942 0.9890625383 1.5290910841
C -0.1290235719 1.288087376 -0.1094544691
O 0.3124733436 2.1620183793 -0.8336167601
C -1.5982738235 1.0348031493 0.0480183358
C 2.0407459876 0.0135637467 -0.0986137142
C 3.1382777143 -0.5185513548 0.8195712406
C 1.7867044203 -0.9633530323 -1.2427935419
H -3.7329881365 -0.6076362747 0.6687543865
H -3.949975874 0.0384941768 -0.9592174161
H -3.602332431 -1.6753003522 -0.7330089609
H -1.7551566243 -2.0201821498 0.9687166736
H -0.5958335312 -2.1108751108 -0.3420953717
H -0.5465720087 -0.4404229725 2.180611389
H 0.6569257731 -1.5795243495 1.6141727953
H -1.8783443488 1.1253643165 1.0974799164
H -2.1595475694 1.7648407725 -0.5368054142
H 2.3849757692 0.9594945544 -0.5348342715
H 4.0499122448 -0.6785140881 0.2494223627
H 2.8485723682 -1.4670089054 1.2648772259
H 3.3535927259 0.1882586423 1.6172703686
H 2.6813888419 -1.050601068 -1.8552359824
H 0.9771821886 -0.6085308924 -1.8767201815
H 1.5402757111 -1.9511520617 -0.8640175907
*
