! r2scan-3c def2/J RI DEFGRID2 scfconv6 printgap
%output
    printlevel normal
end
%cpcm
    smd true
    smdsolvent "water"
end
* xyz 0 1
C -2.5309135546 -0.9604348606 0.3570135093
C -1.0981904129 -0.4743306584 0.621096427
H -0.9307470904 -0.408043833 1.7075000707
C -0.8220556219 0.9029340282 -0.0062304027
H -1.0177257356 0.8441310805 -1.0852982308
C 0.6524030678 1.2894075948 0.1927061323
H 0.8298740753 1.4662996123 1.2647300202
C 1.5850582119 0.1676047202 -0.267402468
H 1.5474390566 0.1105363296 -1.3642598859
C 1.130096236 -1.1858539542 0.3088931799
H 1.3002556616 -1.1639002609 1.4069577754
O -0.2295771308 -1.4432101088 0.0605242634
O 1.8776283997 -2.1748715068 -0.2980181598
O 2.8823489767 0.4633122159 0.1773051142
O 0.9620229569 2.4420534501 -0.5474569426
O -1.5908868007 1.9194451008 0.5912933762
O -2.8665636627 -0.9369036564 -1.005295864
H -3.2371649916 -0.3027006055 0.8651483223
H -2.6285958301 -1.9722571305 0.7670936883
H 1.5261182249 -3.0477743176 -0.061579354
H 3.4946721016 -0.1969731173 -0.1806639575
H 0.3816013149 3.1587154056 -0.2481826585
H -2.4953993518 1.8867120772 0.2501358088
H -2.2863491963 -1.5515495439 -1.4765820543
*
