! r2scan-3c def2/J RI DEFGRID2 scfconv6 printgap
%output
    printlevel normal
end
%cpcm
    smd true
    smdsolvent "water"
end
* xyz 0 1
C -3.3192774143 0.7657313672 -0.121784057
C -2.4710797884 -0.4832849853 0.0919076594
C -0.9812922625 -0.258720093 0.0491386091
C -0.395759135 0.9800979117 0.2650524411
C 0.9793225851 1.1386955117 0.2323050813
C 1.8035953144 0.0501745953 -0.014978531
C 1.2296683238 -1.1994168428 -0.2293203119
C -0.1418872539 -1.3421619539 -0.197388198
O 3.1628774554 0.1523015534 -0.0586293034
H -4.3676488833 0.4881256039 -0.1998824062
H -3.0282206469 1.2729603405 -1.0387072129
H -3.2165367742 1.4577032676 0.7099782824
H -2.7259488855 -1.2222116759 -0.6717590623
H -2.7251181477 -0.9250542601 1.0608403745
H -1.0081544284 1.8454349694 0.4613640597
H 1.409574234 2.1158450861 0.4005022038
H 1.8761673252 -2.0415299859 -0.4211832529
H -0.5725852553 -2.3183528768 -0.3675311986
H 3.4373858544 1.0670518754 0.1040973312
*
