! wb97x-v def2-tzvp def2/J RIJCOSX DEFGRID2 scfconv7 GCP(DFT/TZ) printgap
%output
    printlevel normal
end
* xyz 0 1
C -2.512554485103767 -0.19577918660417884 6.122173012344367e-05
C -1.1514403046582413 0.3813112492906426 -2.9594925897767655e-05
C -0.005106893378484631 -0.3245989821424729 -7.055634317258397e-05
C 1.2651526758281957 0.36297346063172015 -0.0010998653772257346
O 2.362149650444168 -0.1997676973833871 0.00012679740830272353
H -3.070934730813863 0.1616267712888251 0.8745659306163527
H -2.4999428042924663 -1.287737521813833 0.0003297420070588456
H -3.0707957480662036 0.16116852748816315 -0.8747269177150818
H -1.0817236547054596 1.4700013582150282 0.00010191395440084786
H -0.00179579337096683 -1.4125100762738692 0.00032499847511565017
H 1.2096595490428137 1.4700990250181292 0.0008706584854148577
*
