! pbe def2-sv(p) def2/J RI DEFGRID1 loosescf d4 GCP(DFT/SV(P)) printgap
%output
    printlevel normal
end
* xyz 0 1
C -2.2829652483 -0.9482630137 -0.3310638843
C -1.1456472674 -0.2224332238 0.3979404829
H -1.5506336905 0.229815274 1.3115242145
C -0.5523830776 0.8890073631 -0.4683086305
H -0.3873960891 0.5116234419 -1.4918198243
C 0.7972546477 1.3128507983 0.1307746447
H 0.6633318948 1.5632216631 1.1890862872
C 1.7894252719 0.1472078474 0.0388714425
H 2.2809185241 0.176408821 -0.9443899571
C 1.0416715776 -1.2090270818 0.1095546571
H 1.6522560611 -1.9144007055 0.692128938
O -0.1573384753 -1.1596990903 0.8344847937
O 0.8630884288 -1.6531219267 -1.2019819892
O 2.7225780567 0.2916459109 1.0762978085
O 1.2600569864 2.4907988762 -0.4749605761
O -1.4543991408 1.9637560275 -0.5037539806
O -2.9787373176 -1.8313998684 0.5120832989
H -1.8739157517 -1.4836344242 -1.198517068
H -3.0044727072 -0.2057501277 -0.6764047039
H 0.5912021322 -2.583515495 -1.2124395985
H 3.4960735048 -0.2694436954 0.9205932727
H 1.5535101888 2.3063285989 -1.3802702505
H -0.9388358895 2.7843224732 -0.5899098432
H -2.3314431024 -2.3684659773 0.9928360479
*
