! r2scan-3c def2/J RI DEFGRID2 scfconv6 printgap
%output
    printlevel normal
end
* xyz 0 1
C -2.8218025491 -0.2620923322 -0.4014379255
O -1.3980258214 -0.4860780461 -0.4348432719
C -0.6140400981 0.3396211263 0.1796382117
O -0.8937609906 1.3230163849 0.8124356578
C 0.8747813905 -0.0941040873 0.007055295
F 1.5881282854 0.8716310091 -0.5870114624
F 1.4451045375 -0.3306342744 1.1958470292
F 1.0182221927 -1.199886208 -0.727091806
H -3.2689362253 -1.1164283192 0.1023936726
H -3.155782002 -0.2154982097 -1.4354249582
H -3.0438147174 0.6636471109 0.1272706616
*
