! pbe def2-sv(p) def2/J RI DEFGRID1 loosescf d4 GCP(DFT/SV(P)) printgap
%output
    printlevel normal
end
* xyz 0 1
C -2.6900853488 0.4261976952 1.2343722965
C -1.4622779546 0.4244883615 0.3722692642
C -0.887020078 1.5429958152 -0.048800314
C 0.3327566924 1.6165057633 -0.9136452651
C 1.0789849784 0.2838698903 -1.0127404929
H 1.6958624717 0.2992927382 -1.9183285941
C 0.0432178518 -0.8338796057 -1.1834179405
C -0.8758742739 -0.930961702 0.0325154257
H -0.2850824792 -1.2841438975 0.8975309055
O -1.8653345827 -1.9026487389 -0.2736383987
C 2.0019953718 -0.022180614 0.1517514519
C 2.9068943394 -0.9837643331 0.0362069167
C 1.8835510712 0.7781601545 1.4130492237
H -2.9576165593 1.4421824384 1.5113712475
H -2.5191534255 -0.1502946886 2.1434541011
H -3.5290440815 -0.0155082464 0.6977473419
H -1.3202123895 2.4980597296 0.2202286487
H 0.0141665082 1.9143111704 -1.9185137165
H 0.9954549204 2.4035033467 -0.5499310681
H -0.5802436298 -0.6324323028 -2.0565824858
H 0.5320369583 -1.7972881113 -1.3316559948
H -2.3995034361 -2.0702488416 0.5136308853
H 3.5686020267 -1.2446115841 0.8446021507
H 3.0234681858 -1.5517215264 -0.8717745775
H 2.4372691483 0.2997319105 2.216595661
H 2.2983017176 1.7744597642 1.2637367903
H 0.8441966497 0.8915166976 1.7096778066
*
