! wb97x-v def2-tzvp def2/J RIJCOSX DEFGRID2 scfconv7 GCP(DFT/TZ) printgap
%output
    printlevel normal
end
* xyz 0 1
C -1.9032292862552387 -0.00015198108378822292 0.2783781081742523
C -1.1927791214071628 -1.2596496936341168 -0.2201215226038229
C 0.28481855739514744 -1.2565296550452916 0.18519987281289785
C 0.9870297343785623 0.00010225448256063297 -0.31671761095832224
C 0.2846016611987842 1.256602483197877 0.18523177892665568
C -1.1930000874321092 1.2594883858392765 -0.2200752932395446
O 2.3867556529644403 0.00021980244602342483 0.051206128754428044
H -1.9107203723474628 -0.00017323126305971446 1.3770982031103927
H -2.9487549443655316 -0.00023759291059238718 -0.05065120375857663
H -1.683930850312147 -2.1582709570591043 0.16956102309342322
H -1.2656692133261063 -1.3054462200676777 -1.3154569491620733
H 0.3655043712636146 -1.2820839385488338 1.2819257069311345
H 0.7962709838278627 -2.1439322183039184 -0.20519261184835821
H 0.9882923723441204 0.00011509803071453271 -1.4145850204816652
H 0.3652950469439044 1.282145635620991 1.2819580669180533
H 0.7959015929512399 2.1441011397246417 -0.20514441521274362
H -1.6842995725277705 2.1580084790385023 0.16965492339989593
H -1.2659115844834976 1.3053232765930016 -1.3154081630644117
H 2.4215943181426973 0.0001371347179884153 1.0178812344078565
*
