! pbe def2-sv(p) def2/J RI DEFGRID1 loosescf d4 GCP(DFT/SV(P)) printgap
%output
    printlevel normal
end
* xyz 0 1
C -2.3216070913 -0.9735047637 -0.284588765
C -0.9256633987 -0.5230815111 0.1575009984
H -0.8361435125 -0.6885107755 1.2439329982
C -0.6977687257 0.9779265309 -0.1271209781
H -1.2216907934 1.2629855794 -1.0463304234
C 0.8004192881 1.2517403352 -0.3754787153
H 1.0135087441 2.2742798023 -0.0246261649
C 1.6489629852 0.2736336864 0.454606811
H 2.712380881 0.4330540245 0.2347792871
C 1.32569904 -1.179752306 0.0322538525
H 1.3862623727 -1.8270063966 0.9370191281
O 0.0336607286 -1.3146644321 -0.5151561378
O 2.2533816717 -1.5742717325 -0.9128271251
O 1.3583322526 0.5221763721 1.8069694258
O 1.0326236312 1.1381577087 -1.7522693068
O -1.2311556873 1.7764128306 0.8953019539
O -3.3306352324 -0.4147145713 0.5158888638
H -2.4025676718 -2.0570983242 -0.1748662339
H -2.4623814966 -0.716709367 -1.3427050607
H 1.8916675505 -2.3139691069 -1.4249515991
H 2.0401948291 0.1381640901 2.3763239369
H 1.9742579529 1.256489379 -1.9434328665
H -0.7100469124 1.6416022987 1.7026205373
H -3.2047531252 0.5460201216 0.562536704
*
