! pbe def2-sv(p) def2/J RI DEFGRID1 loosescf d4 GCP(DFT/SV(P)) printgap
%output
    printlevel normal
end
* xyz 0 1
C -2.3107279875 -1.0027650889 -0.3412583792
C -0.9437231014 -0.5662821819 0.1835249652
H -0.8949412137 -0.7673097397 1.2672344314
C -0.7320198467 0.9521389834 -0.0245686824
H -1.3645503808 1.3033139288 -0.8497634521
C 0.7251478951 1.245970159 -0.4225048267
H 0.9364399729 2.2904372555 -0.1403354741
C 1.660128185 0.3326429043 0.3810240017
H 2.702163687 0.4766791674 0.0694367735
C 1.3278008551 -1.1521563104 0.0814628405
H 1.381080946 -1.7057844191 1.0452783327
O 0.0419530856 -1.3314440069 -0.4730986241
O 2.2538822132 -1.6324470934 -0.822933575
O 1.6012381235 0.6185138447 1.7549223341
O 0.8337022946 1.0711506017 -1.8087394664
O -1.0111060838 1.6612297402 1.159707602
O -3.2809606263 -0.2121428601 0.3050777671
H -2.4508194958 -2.067917349 -0.1254370747
H -2.325275197 -0.8528652373 -1.427280868
H 1.9260039655 -2.4600480144 -1.2088569345
H 0.7405833947 1.0222253637 1.9657102866
H 1.7581625509 1.1612596354 -2.0804932553
H -1.9539174111 1.5590796421 1.3632720541
H -4.1609984291 -0.4652169953 -0.0072509297
*
