! pbe def2-sv(p) def2/J RI DEFGRID1 loosescf d4 GCP(DFT/SV(P)) printgap
%output
    printlevel normal
end
* xyz 0 1
C -2.5536015402 -0.687802383 -0.3547245682
C -1.1837584081 -0.307289044 0.2173452567
H -1.2510746301 -0.2716039697 1.316711804
C -0.7143003192 1.0635070779 -0.3133053391
H -0.7105090138 1.0261969897 -1.4090960794
C 0.7159736287 1.3331831993 0.1955946902
H 0.698831371 1.3892171586 1.2925557951
C 1.6267145273 0.1633489385 -0.2287749371
H 1.6428589929 0.0914618655 -1.3227084928
C 1.0318387178 -1.1487706594 0.3376233245
H 1.0077440856 -1.0958956875 1.4398070959
O -0.2765744009 -1.3276105839 -0.1645549242
O 1.7758758884 -2.2649603219 0.0323854647
O 2.9639061531 0.3460735441 0.1429266925
O 1.2097834034 2.5813894645 -0.2073739033
O -1.6059083155 2.0921402811 0.0156302067
O -3.1166058114 -1.7925557908 0.3011910184
H -2.4392489866 -0.8848368112 -1.427327515
H -3.242050235 0.1467038993 -0.2128589262
H 1.7796774201 -2.4127576525 -0.9263443001
H 3.0386500476 0.4597309164 1.1009324639
H 1.2704236543 2.6250664344 -1.1719786819
H -1.5285480917 2.3169180305 0.9542626233
H -2.5185764181 -2.5474075478 0.2006575475
*
