! wb97x-v def2-tzvp def2/J RIJCOSX DEFGRID2 scfconv7 GCP(DFT/TZ) printgap
%output
    printlevel normal
end
%cpcm
    smd true
    smdsolvent "water"
end
* xyz 0 1
C -2.577602718775918 -0.6943580384210031 -0.29773333386313816
C -1.2126493430862024 -0.29534831245791304 0.22269039919392872
H -1.2310032303895795 -0.25255776423474163 1.3251557644440493
C -0.7427991530062673 1.0523303008209899 -0.33266816329454363
H -0.7757658271167058 1.0257750382643471 -1.4286202681761186
C 0.6888055238799778 1.3179952425728487 0.12925990440016336
H 0.6797896369470752 1.4449437791767332 1.2251333242992233
C 1.6052754155572462 0.1518848037576095 -0.21452247809155708
H 1.679271566192356 0.059382975111963804 -1.3109639413176413
C 1.0190657993832375 -1.1457313163401666 0.3353909298313366
H 0.9729743097915604 -1.118547654140262 1.4340718245670239
O -0.2954549419773156 -1.3219693996978452 -0.2010281686276913
O 1.7788595208544773 -2.2728088289407355 -0.008281020861263012
O 2.9010611974662903 0.3186720064216517 0.36488428090974595
O 1.2391785668266342 2.483825476202169 -0.49368396391570635
O -1.6063295338507357 2.123463214873573 0.06258455862491558
O -3.052107759333104 -1.9033181225587212 0.3071393238447942
H -2.5333574765131153 -0.7961369512382204 -1.3917711882288224
H -3.300487035671232 0.08582406131494708 -0.04872491352989702
H 1.9750712853764547 -2.2305758160862648 -0.9562077691998682
H 3.248426108663651 1.163905707594666 0.04944179108877174
H 0.7090791133984157 3.2396183087263934 -0.20748607343434333
H -1.60908044020546 2.157418470328833 1.0305608514367341
H -2.4326729180138758 -2.6049670557100715 0.0670712691551549
*
