! wb97x-v def2-tzvp def2/J RIJCOSX DEFGRID2 scfconv7 GCP(DFT/TZ) printgap
%output
    printlevel normal
end
%cpcm
    smd true
    smdsolvent "water"
end
* xyz 0 1
C 4.453702141719181 -0.3691536513842243 -0.0775743754906041
C 3.725929340388986 -0.5165233660302078 -1.256175500264816
C 2.3607909988671154 -0.24585672558185642 -1.2729151292377268
C 1.7435154441787588 0.17528360277024282 -0.10146615535572168
C 2.4547552670430504 0.3251923609734706 1.0827387720982062
C 3.819593064081602 0.05205818849920715 1.0889545102512492
N 0.32879551991006534 0.4569613408195435 -0.11349273918535673
C -0.5620847573866038 -0.5994107832649257 0.1524175164357634
O -0.12159832445630124 -1.7370123321922095 0.3900180473130934
C -1.9323486060736852 -0.21292598641056862 0.11529596849590268
C -2.3293444452087737 1.0857803059532445 -0.15577283809177525
C -1.2760306443343674 2.0260339222204826 -0.3957610728500721
N -0.011246154643404315 1.724368578311609 -0.3755577372717431
N -3.6041959774602668 1.5028288217352517 -0.20407738660963246
Cl -3.1240078259446835 -1.443298550597964 0.429365861197095
H 5.517333290131013 -0.583386427830842 -0.06818673365861531
H 4.21994487821925 -0.8432259565936293 -2.1652026079673523
H 1.7787561877028373 -0.35929854556426954 -2.1814797090022537
H 1.944919694763759 0.6489639538418278 1.9841155651230076
H 4.386276910823164 0.16693852047547938 2.0069371524827218
H -1.5202659626607795 3.061745309544195 -0.6116800037311151
H -3.80827385353743 2.467840538969991 -0.40846022002456855
H -4.370511984711322 0.8681981446055335 -0.04800812933557794
*
