! r2scan-3c def2/J RI DEFGRID2 scfconv6 printgap
%output
    printlevel normal
end
%cpcm
    smd true
    smdsolvent "water"
end
* xyz 0 1
C -1.4681037959 -0.0006769287 0.2355391911
C -0.7292198221 1.2504020278 -0.2371441171
C 0.728765398 1.1993804699 0.2350853572
N 1.4284104476 0.0006882962 -0.1987110073
C 0.7299525326 -1.1987077586 0.2350022776
C -0.7280354321 -1.2510959098 -0.2370616542
H -2.4917661655 -0.0011697295 -0.1448542282
H -1.513595136 -0.0006272169 1.3272249132
H -0.7533028322 1.2977670166 -1.329285667
H -1.2123927722 2.1477554667 0.1516146824
H 1.2803365652 2.0671001175 -0.1337517985
H 0.758104497 1.2145274425 1.3291427109
H 1.4806037607 0.0007412027 -1.2140258904
H 1.2823517124 -2.0658476029 -0.1340497721
H 0.7594217946 -1.2140437264 1.3290414131
H -0.7521876428 -1.2985580342 -1.3292222233
H -1.2103192206 -2.1488909785 0.1518241376
*
