! wb97x-v def2-tzvp def2/J RIJCOSX DEFGRID2 scfconv7 GCP(DFT/TZ) printgap
%output
    printlevel normal
end
* xyz 0 1
C 0.8515107102032494 -1.8354155460637689 5.230146954551677e-06
C 1.8778011653096662 -0.9001180233071343 -2.214733940869888e-05
C 1.5624241469349631 0.4588945909177951 -1.7072090900041883e-05
C 0.2327196124983584 0.8840535439822664 3.061562463501599e-05
C -0.7622074146844797 -0.08394319318234987 5.9749070507582256e-05
C -0.4866353861659052 -1.4446266703415023 4.0636149871397704e-05
Cl -2.4443456015045353 0.4473004981840071 0.00011240302539530099
O 2.6067668299534086 1.3490532999476184 -4.8248905194084825e-05
H 1.0931267903239184 -2.8932374558188503 -5.802774826613208e-06
H 2.917433255756623 -1.2081932522002918 -5.632766310737838e-05
H -0.007381328392245527 1.9420953281686013 3.729814222308212e-05
H -1.284864114140822 -2.1766052847386015 5.9333221692553776e-05
H 2.265289426912255 2.2547856110733275 -0.00010215604706381994
*
