! pbe def2-sv(p) def2/J RI DEFGRID1 loosescf d4 GCP(DFT/SV(P)) printgap
%output
    printlevel normal
end
* xyz 0 1
C -2.5568577646 0.4331078747 -1.2448873761
C -2.0166855815 0.4582083788 0.1910016451
H -2.8781427461 0.5699454499 0.8597893767
C -1.0332999254 1.6008682722 0.4330990976
C 0.2680815629 1.4346011779 -0.3555652626
C 0.7707184385 -0.0251649874 -0.3750136362
H 0.4970793561 -0.4802451537 -1.3325275259
C 0.0941532713 -0.8550089369 0.7266844968
C -1.3894724596 -0.8820531567 0.506096605
O -2.0452668204 -1.9062511432 0.558682023
C 2.2763437704 -0.0740372312 -0.2595349241
C 3.0323389493 -0.3212621517 -1.3180116512
C 2.8674700647 0.182873044 1.0933942541
H -1.7485934493 0.3201834996 -1.9616938971
H -3.2421157639 -0.4029292773 -1.3651683441
H -3.0873018914 1.3573023136 -1.4569509031
H -1.5035755519 2.545290403 0.1563081239
H -0.8123910552 1.6484577959 1.5008967391
H 0.1247498847 1.7707448528 -1.3823093782
H 1.0268020797 2.082624821 0.0849602833
H 0.4776213637 -1.8766656703 0.7349604401
H 0.2811692657 -0.4049823172 1.702735798
H 4.1073991356 -0.3345616449 -1.2588437695
H 2.6096699125 -0.5212890052 -2.2882420781
H 3.9307213798 0.3896825021 1.0112225582
H 2.3823514533 1.0255923776 1.580393761
H 2.739921605 -0.692609942 1.7286805075
*
