! wb97x-v def2-tzvp def2/J RIJCOSX DEFGRID2 scfconv7 GCP(DFT/TZ) printgap
%output
    printlevel normal
end
* xyz 0 1
C 2.280614774350786 2.2329979303351544 1.1517139794981524
C 1.9093305844270183 1.6310099137992642 -0.1913163797070012
C 2.812720944312741 0.42723383755990585 -0.5525455971093267
C 2.003699607682097 -0.7526819774815734 -0.09435393755990547
C 2.3208206594658067 -2.0929550307577913 0.06405586820916889
C 1.3253168217836129 -2.980647298337507 0.4857541827632975
C 0.030986121074594173 -2.527390877558492 0.7384275713439518
C -0.27834946802607907 -1.181141007983276 0.5832290667994238
C 0.7127317684722442 -0.301740999685859 0.1691281842858146
O 0.539536339718532 1.0329684371297285 -0.018956880222440173
O -1.55147428893769 -0.7159324168448091 0.9254922754354912
C -2.3088323991117874 -0.19474765854587478 -0.11538596513727249
O -1.9860567842825516 -0.2922815677504989 -1.2929625486450504
N -3.4127385380542337 0.39525956048479727 0.35493333527945564
C -4.43016476808088 0.905800514312162 -0.5555008358114624
C 1.7988731791320742 2.6663907264009654 -1.2867168747824635
H 2.3174039056317897 1.4570400898002382 1.9235975959876634
H 3.267006267643245 2.7020487079240416 1.0854402881775975
H 1.5511468917518625 2.9930622249756333 1.4460537676110954
H 2.9903441844249183 0.3789719956178602 -1.6336680124215146
H 3.78301725218509 0.5000672807562975 -0.05370237181785458
H 3.3268455066295104 -2.448917084156852 -0.13523473756045246
H 1.5562937122278369 -4.032087591401657 0.6185405515065547
H -0.7472086906792945 -3.20848358266003 1.0672670751823654
H -3.5915546798469458 0.3688993628105223 1.3472334389370886
H -4.019382024353102 1.688916212333079 -1.1990132188317755
H -5.2380955673277585 1.3303557350583517 0.0407831974543445
H -4.836203315734394 0.10716854469340906 -1.1845970823508396
H 2.7813266142651494 3.1171281332330425 -1.4574915144658325
H 1.1009125858143711 3.459772436785293 -1.0033198798181096
H 1.4615322148961398 2.2071295641759168 -2.220200865627885
*
