! pbe def2-sv(p) def2/J RI DEFGRID1 loosescf d4 GCP(DFT/SV(P)) printgap
%output
    printlevel normal
end
* xyz 0 1
C -1.8846206142 0.0197418271 0.2990665001
C -1.1950431127 -1.2115520737 -0.3023157476
C 0.2674303611 -1.2732004594 0.1210116527
C 1.0628018476 -0.0914794799 -0.4523293417
C 0.15945335 1.1406554322 -0.6322348723
C -0.9012472949 1.185205345 0.4615424018
O 2.1298190621 0.1568638997 0.4496372505
H -2.3055662912 -0.2307585039 1.2738519812
H -2.7107243394 0.3188919833 -0.3481605738
H -1.7082294837 -2.1183710688 0.0189572446
H -1.2432087131 -1.1758466205 -1.3922922731
H 0.3432623246 -1.2255813206 1.2085993503
H 0.7238843604 -2.2100108503 -0.199766225
H 1.4835034112 -0.369929679 -1.4323897848
H 0.7726818273 2.0432959793 -0.5994705003
H -0.3219091639 1.0988530311 -1.6098552704
H -0.3989158609 1.1217241162 1.4284369514
H -1.4383453362 2.1340236356 0.4284055775
H 2.6824063713 0.8720301133 0.1072478751
*
