! pbe def2-sv(p) def2/J RI DEFGRID1 loosescf d4 GCP(DFT/SV(P)) printgap
%output
    printlevel normal
end
* xyz 0 1
C -2.9442462389 0.6782395548 0.7187639278
C -1.4658892419 0.3074697465 0.6238100927
H -1.1067888811 0.079090734 1.634365254
C -0.6143957071 1.4568811786 0.0451676405
C 0.2250225159 1.0100404323 -1.1445921163
C 1.0813200391 -0.2140731197 -0.7875192529
H 1.6503145588 -0.4911088162 -1.6810580744
C 0.1405199632 -1.3839384489 -0.4520080935
C -1.2776701177 -0.9820253875 -0.1417267777
O -2.2126281052 -1.6970757068 -0.4530170292
C 2.0944355524 0.1301476766 0.282290339
C 1.9241119622 -0.0782241492 1.5782044245
C 3.3517896295 0.7542869599 -0.2466279548
H -3.0734003788 1.5570940796 1.3440909974
H -3.3440190162 0.8838443664 -0.2717999121
H -3.5130309397 -0.1459932774 1.1431706582
H -1.2777250915 2.262400514 -0.2711456344
H 0.0452995549 1.8527318876 0.8175910949
H -0.431781795 0.7394379483 -1.9751947992
H 0.8598953384 1.8344434967 -1.4702868213
H 0.0977018022 -2.0951023536 -1.2794368485
H 0.5117284882 -1.9353229582 0.4146485859
H 2.6815633208 0.1971837244 2.2924807063
H 1.0399936702 -0.5302896845 1.9927414903
H 3.1200243506 1.6146552767 -0.8713765019
H 3.9998487278 1.0746587634 0.5639177069
H 3.8927493866 0.035576125 -0.8611080223
*
