! wb97x-v def2-tzvp def2/J RIJCOSX DEFGRID2 scfconv7 GCP(DFT/TZ) printgap
%output
    printlevel normal
end
* xyz 0 1
C 0.7405800274312722 9.549510300402903e-05 -0.00012260151920367275
C 1.4497458326039523 0.8577799385637292 -0.8413264890218084
C 2.846039041381641 0.867266870928633 -0.8493304885702326
C 3.5434977321114123 0.00018380183241942022 -0.0003318916682426934
C 2.846222006144345 -0.8669376849825164 0.8487811892945883
C 1.4499286473554054 -0.8575401112653317 0.8409819683716893
Cl 0.5620369320285254 -1.91911550920574 1.884393861642391
Cl 3.705342167395574 -1.9373347419783984 1.8970867833796077
Cl 5.269935754331562 0.0002395315240087162 -0.0004820071371820208
Cl 3.704957420053557 1.9377088397020084 -1.8977587655403148
Cl 0.5616137531676911 1.9193001557117493 -1.884590104074066
C -0.7405855954626965 1.2031731298889428e-05 -1.3443401219764178e-06
C -1.4498364209810266 0.8576092414608135 0.8412224136165629
C -2.846124493009353 0.8668804091549762 0.8493287314428822
C -3.5435036914578055 -0.0003492697705812235 0.0003941149771793323
C -2.846147554763669 -0.8673621265408272 -0.8487436221496918
C -1.4498494565968802 -0.8577441969229592 -0.8410520835562204
Cl -0.5618063447192059 -1.9191742541132928 -1.8844873529008754
Cl -3.705296788135265 -1.9378678262844145 -1.8969147892966867
Cl -5.2699419913713115 -0.0007463869812025185 0.0005614019450532676
Cl -3.705011394429048 1.9372676381953147 1.8978402140247255
Cl -0.5618573121580757 1.9193120570386595 1.884426800179818
*
