! pbe def2-sv(p) def2/J RI DEFGRID1 loosescf d4 GCP(DFT/SV(P)) printgap
%output
    printlevel normal
end
* xyz 0 1
C -1.9035239742 -0.5964863019 -0.8217889375
C -1.1940928542 -0.1209882001 0.4540897304
H -1.9222572823 -0.1122951784 1.2745923349
C -0.6212336835 1.3008898456 0.3232112317
H -1.3726938438 1.9188851852 -0.1804878727
C 0.6833534357 1.3164448108 -0.4974974146
H 1.1586273535 2.296622797 -0.3388910473
C 1.666630177 0.2701094632 0.0509368653
H 2.468277675 0.1513109372 -0.689460569
C 1.0144496354 -1.1141273794 0.2284543225
H 1.6412259172 -1.6994631959 0.922647777
O -0.2233525671 -1.074729766 0.8922607001
O 0.9620916569 -1.7318052949 -1.0185753169
O 2.1485378038 0.7608352797 1.277874781
O 0.4783165514 1.0682501573 -1.8629075334
O -0.4296302026 1.9007868077 1.5807529599
O -2.6800347888 -1.7479928963 -0.5781259656
H -1.1628612372 -0.7829427526 -1.608355856
H -2.6034319845 0.1690428129 -1.1600345399
H 0.7324957912 -2.6682363337 -0.9230829655
H 2.9188659955 0.2518576075 1.5682350974
H 0.0877989535 1.8486004951 -2.2808634086
H 0.357623705 1.5131961237 1.9985425413
H -2.1427383551 -2.3783182717 -0.0773154182
*
