! pbe def2-sv(p) def2/J RI DEFGRID1 loosescf d4 GCP(DFT/SV(P)) printgap
%output
    printlevel normal
end
* xyz 0 1
C -2.1149513681 -1.1907416068 -0.1728037545
C -1.2486163283 -0.3425512279 0.7701113905
H -1.8368854576 -0.1746356923 1.6784856703
C -0.907274462 1.0346849412 0.145755384
H -1.1806491838 1.0276965649 -0.9158298789
C 0.6059759061 1.2901702808 0.2562832694
H 0.9038813161 1.3378188759 1.3100626889
C 1.3231802 0.1019766401 -0.4016582897
H 0.9428915701 -0.0107910185 -1.4298883703
C 0.9938180836 -1.1892821768 0.3904528213
H 1.8315883812 -1.4167579568 1.0615495439
O -0.1010110396 -1.0270106475 1.2596762416
O 0.8628087808 -2.2918353974 -0.444506693
O 2.7051642564 0.3552669734 -0.4190772038
O 0.9722128513 2.5286127104 -0.2822416193
O -1.6750149394 2.0662743804 0.7071873307
O -1.4966667081 -1.3156785406 -1.4420978197
H -3.0803242285 -0.684817215 -0.2683911683
H -2.257170551 -2.1776628616 0.2822972383
H 0.0821350196 -2.1496355997 -1.0223850077
H 3.1598562193 -0.3577741034 -0.8899494404
H 0.809311088 2.5372875742 -1.2365794757
H -1.3143946006 2.3172330242 1.5693964291
H -2.1180712589 -1.7339337284 -2.0556010709
*
