! wb97x-v def2-tzvp def2/J RIJCOSX DEFGRID2 scfconv7 GCP(DFT/TZ) printgap
%output
    printlevel normal
end
* xyz 0 1
C -1.6534792677807217 -0.7886210642211484 0.9509548513837507
C -0.889342566609616 -0.026534446303430232 -0.10108417339625911
O -1.5044385217895349 0.5047205149763037 -1.020957734455794
C 0.6283252654672883 0.062230311958659724 0.002821538227762089
C 0.9887061975755521 0.7266621253708992 1.344787979075496
C 1.1990033101982396 0.8856707607854472 -1.149894723342805
C 1.201865582158527 -1.3663065309816398 -0.04353006887093795
H -2.228287409321463 -1.577950865139217 0.4552393509693732
H -1.030090226254985 -1.2304841799778155 1.7271347769746312
H -2.3751585056662248 -0.10640826482820272 1.4126292542861671
H 0.6463149612954887 0.13749813923946758 2.199548620586909
H 2.077516358556187 0.8202389857096523 1.4129409319139332
H 0.5541228938631342 1.7293248298337816 1.4151574224782923
H 2.28842406967811 0.9347624513470223 -1.0563582824863467
H 0.8086809172777208 1.9076237474390825 -1.1407755992452138
H 0.9599567814475946 0.4367581739352573 -2.1185339253788404
H 2.294435577502969 -1.3101835320182078 0.001052504348728382
H 0.9229201519443783 -1.8712185604651645 -0.974324207144359
H 0.8598234064683413 -1.9739344457003298 0.798454214924279
*
