! r2scan-3c def2/J RI DEFGRID2 scfconv6 printgap
%output
    printlevel normal
end
* xyz 0 1
C -0.8204982958 -2.2883861978 -0.0001163069
C 0.0702631219 -1.0859952707 0.00017475
C 1.4492022112 -1.2525382211 0.0001942755
C 2.3115665193 -0.169189259 -3.8887e-06
C 1.8099639913 1.1245960114 -0.0002882753
C 0.4455977962 1.3157283139 -0.0001790846
C -0.4353195678 0.2273303164 0.0001260547
C -1.8642825814 0.5090899133 0.0008130782
O -2.3568989958 1.6230318409 -0.0006630643
H -1.4595367188 -2.2953427368 0.8806764599
H -1.4580007636 -2.2957699923 -0.881992397
H -0.223839374 -3.1961733488 0.0006356187
H 1.8570411492 -2.2522586406 0.0003738277
H 3.3780890494 -0.3338869557 3.7427e-06
H 2.4787200078 1.9707826933 -0.0005036831
H 0.0171543529 2.3074042995 -0.0002466374
H -2.5274984943 -0.3710217153 0.0029912257
*
