! wb97x-v def2-tzvp def2/J RIJCOSX DEFGRID2 scfconv7 GCP(DFT/TZ) printgap
%output
    printlevel normal
end
* xyz 0 1
C -0.45369154676224693 -0.9498370930485802 0.004297044977574564
C 0.7522316925629036 -0.039130521313311975 5.826078289166192e-05
F 0.8030719981837214 0.7640321575577119 1.0847134721442706
F 0.8019504745962986 0.7556171733669169 -1.0908034850770556
F 1.876015097983385 -0.7951185732021842 0.0024157775002046863
Cl -1.976929625454639 0.014085579625053458 -7.11558586445551e-05
H -0.43059695140111404 -1.5749262493298146 -0.8898419644244561
H -0.4306347988950162 -1.5668064700357371 0.9040413158902402
*
