! r2scan-3c def2/J RI DEFGRID2 scfconv6 printgap
%output
    printlevel normal
end
* xyz 0 1
C 2.4731079687 1.2063804233 -0.0269518402
C 1.696866865 -0.0767448689 0.002017091
O 2.2499877582 -1.1643301466 0.0258651458
C 0.2165928999 0.0231865423 0.0005863478
C -0.4836088628 1.2304688775 -0.0058272603
C -1.8671668868 1.1966776971 -0.0068376415
C -2.5029644563 -0.036859411 -0.0007894537
N -1.8528023774 -1.1926017157 0.0055031072
C -0.5344941496 -1.1567940786 0.0060845849
H 2.2136758083 1.7768800672 -0.9151740979
H 3.5363316892 0.9826044617 -0.0352504017
H 2.2343458118 1.8011898585 0.8512750542
H 0.0336237204 2.1763419644 -0.0093863998
H -2.4436916587 2.1072047212 -0.011591228
H -3.5812589684 -0.1136550518 -0.0002008648
H -0.0247152169 -2.1115198792 0.0112453893
*
