! pbe def2-sv(p) def2/J RI DEFGRID1 loosescf d4 GCP(DFT/SV(P)) printgap
%output
    printlevel normal
end
* xyz 0 1
C -2.3850352025 -1.1818487728 -0.2889999252
C -1.0846923572 -0.6340842552 0.329423427
H -1.150255778 -0.6377039986 1.4297347177
C -0.8108263437 0.8179295545 -0.0999916208
H -0.9798285615 0.9183569737 -1.1814592042
C 0.6408757259 1.2224526103 0.2034862957
H 0.7451413879 1.3249961007 1.2980296863
C 1.6277335671 0.1553633238 -0.2898528847
H 1.554461849 0.0793391771 -1.3806773583
C 1.2272326861 -1.1929568983 0.3383495099
H 1.2511854613 -1.1052147706 1.4392112573
O -0.0742939791 -1.527051305 -0.0943754275
O 2.0789098619 -2.2264696886 0.0205334391
O 2.9548417765 0.5247369129 -0.0168673386
O 0.8760705103 2.4671272674 -0.4109222448
O -1.6992139859 1.6339072755 0.6214352066
O -3.4495687471 -0.2746892096 -0.3245586422
H -2.6621520894 -2.0971263177 0.2505147192
H -2.1742268027 -1.4468245625 -1.3280085645
H 1.977957831 -2.4625896538 -0.914904986
H 3.1801635482 0.3213026573 0.9022965005
H 1.8333560285 2.6186787573 -0.4446682674
H -1.569856791 2.5522645572 0.3428106659
H -3.5560403553 0.1389623283 0.5444212406
*
