! r2scan-3c def2/J RI DEFGRID2 scfconv6 printgap
%output
    printlevel normal
end
* xyz 0 1
C -3.6616290828 -0.435856021 -1.5121539095
N -2.4791402785 -0.1118487612 -0.7445676596
C -2.4259847072 -0.2300417216 0.5869808783
O -3.3473641823 -0.6125448005 1.2866577514
O -1.2545231091 0.0814680606 1.1870070741
C -0.1913736125 0.6456736951 0.4723467925
C -0.2463409769 1.952445065 0.0595017789
C 0.8518193391 2.5267628903 -0.5980959665
C 1.9800079881 1.792202191 -0.8335322415
C 2.0657471083 0.4468331215 -0.4172247977
C 0.9629415056 -0.147589825 0.2524607905
C 1.0486004337 -1.4913535602 0.6712289856
C 2.1807239372 -2.2195845192 0.4334291481
C 3.2726629028 -1.6375193793 -0.2299177087
C 3.2174434115 -0.3360700205 -0.6444699161
H -4.4411698969 -0.7335166175 -0.8140247855
H -3.4521590349 -1.2579052683 -2.1954442838
H -3.9894462889 0.4359636868 -2.0764668105
H -1.6570183516 0.1842558058 -1.2507936922
H -1.134720199 2.5346482804 0.2516875547
H 0.7902588044 3.5564663122 -0.9118801912
H 2.8255482996 2.2320713943 -1.3392702934
H 0.2045164576 -1.9252131248 1.1872920172
H 2.2406601372 -3.2475379465 0.75636128
H 4.1576370446 -2.228866235 -0.4077669977
H 4.0560417566 0.1154669516 -1.1523768729
*
