! pbe def2-sv(p) def2/J RI DEFGRID1 loosescf d4 GCP(DFT/SV(P)) printgap
%output
    printlevel normal
end
* xyz 0 1
C -2.0942711204 -1.0398732518 -0.2008901648
C -1.1029021817 -0.4247408695 0.8110533475
H -1.5924897963 -0.4462643258 1.7916246705
C -0.7650608837 1.050284392 0.5111173887
H -1.6490447672 1.499535973 0.0442757363
C 0.4526266948 1.255889 -0.4184205403
H 0.810204753 2.2821742351 -0.2270327954
C 1.596401627 0.3093613028 -0.0289420288
H 2.3395523099 0.3377202529 -0.8366611794
C 1.0968481606 -1.1410328963 0.1010171231
H 1.8935231622 -1.7448583188 0.5627553884
O 0.0431790672 -1.251873087 1.0194399562
O 0.7756733494 -1.6278917424 -1.1647766967
O 2.1192070093 0.7674368234 1.1920335195
O 0.1996531929 1.0757133396 -1.7835345045
O -0.5658359493 1.7682533805 1.7074458892
O -1.8976116397 -0.6818202194 -1.5419520215
H -3.09996846 -0.6946178071 0.0492023614
H -2.0590274834 -2.1314130244 -0.0762255693
H 0.6687403288 -2.5912197523 -1.1345875857
H 2.9286479811 0.2866393452 1.416001036
H -0.5352629423 1.6415319596 -2.0599140555
H 0.2870945876 1.5035410648 2.0891380271
H -0.9668318034 -0.8514181963 -1.7838571865
*
