! wb97x-v def2-tzvp def2/J RIJCOSX DEFGRID2 scfconv7 GCP(DFT/TZ) printgap
%output
    printlevel normal
end
* xyz 0 1
C -2.8090529207259154 1.0602144764230075 -0.0006120139739031246
O -2.226898358377833 -0.2528876357041584 0.0002681125237220555
C -0.8586205429356539 -0.33626083995920325 0.0001284491320726131
C -0.33005048545581894 -1.6334080999129224 4.741671558797511e-05
C 1.0468845671164104 -1.800831798094186 -0.00012806717774585842
C 1.911126205535928 -0.7063609437338164 -0.00021188623945863716
C 1.3619231519331791 0.572782583276756 -7.649833089701129e-05
C -0.019502666547630616 0.776371484643546 9.3104354996084e-05
O 2.14735072093783 1.7045035236159212 -0.00011004913510396454
H -2.5188968274524055 1.6176233858992697 -0.8982116671868011
H -2.5195314779843603 1.6186061060534507 0.8965875713673149
H -3.8881381284172756 0.903340147506367 -0.0008987333850287616
H -1.003064943369743 -2.4836752271813745 7.962883389440556e-05
H 1.4611421187973088 -2.8042156467320156 -0.0002413096849309429
H 2.9882482096394876 -0.8402829465686753 -0.00038547489243898704
H -0.4002251646922305 1.789630887331775 0.00021438318857016877
H 3.0770823866261177 1.4374887851656954 -0.000193675782124952
*
