! pbe def2-sv(p) def2/J RI DEFGRID1 loosescf d4 GCP(DFT/SV(P)) printgap
%output
    printlevel normal
end
* xyz 0 1
C -2.5198230169 -0.9901696076 0.3383228967
C -1.0765284238 -0.5143220376 0.5895184722
H -0.9207216555 -0.4500091444 1.6774334715
C -0.7977768941 0.8642655098 -0.0250004285
H -0.9351311761 0.7990400389 -1.1160371974
C 0.6628265387 1.2516405163 0.2334816785
H 0.8280765828 1.3478819572 1.3186513697
C 1.5816419622 0.1502901438 -0.3010236821
H 1.4721300895 0.0966219336 -1.3957453241
C 1.1620354491 -1.2048716244 0.3074697379
H 1.3494674247 -1.1687108859 1.3962232414
O -0.1901598303 -1.4758666464 0.0470795207
O 1.9241262586 -2.2428478441 -0.2004689216
O 2.9051550456 0.4721123492 0.0463045896
O 0.8934891199 2.4860193688 -0.4000956009
O -1.6905501544 1.7924457652 0.531950837
O -2.9918241277 -0.7445620496 -0.9592514097
H -3.1660552529 -0.5187830158 1.0844188894
H -2.5358944179 -2.0738755286 0.4696604332
H 1.4899274316 -2.5898321732 -0.9960055854
H 3.47359001 -0.2923645656 -0.1320311593
H 1.8359742791 2.6974858222 -0.3320181687
H -1.3960611361 2.6813583768 0.2793547186
H -3.2225711132 0.1917322063 -1.0381684869
*
