! wb97x-v def2-tzvp def2/J RIJCOSX DEFGRID2 scfconv7 GCP(DFT/TZ) printgap
%output
    printlevel normal
end
%cpcm
    smd true
    smdsolvent "water"
end
* xyz 0 1
C -3.0323592637294414 -1.503771403190709 0.002630565136540965
C -1.7514879206289375 -0.7104977660618647 -0.0008686788408729304
C -0.5474373999540476 -1.3852271469525372 -0.0018679034135937668
C 0.6953001504662545 -0.7132092566010075 -0.001203837124513929
C 1.9343627256975422 -1.4017641228903912 -0.0009720467052044219
C 3.121721418137053 -0.7076061176792526 0.000408785867159902
C 3.1230331448273425 0.7059144252578308 0.0012354883164957878
C 1.9367319529386087 1.402185659652623 0.0006322443104291321
C 0.6966412237025765 0.716151868257685 -0.0004756318306613041
C -0.545109024889516 1.3918694242893705 -0.0003944311986052573
C -1.750869215788083 0.7189448297696667 -0.0002458664989284812
C -3.038988916258977 1.493549883623364 0.0009381023465135776
H -3.0946533841264383 -2.1308105026210584 0.8987947126503246
H -3.920397933281772 -0.8723021481604566 -0.02459707930027097
H -3.0713678833576856 -2.1763629801108295 -0.8608480555726823
H -0.5463816202592537 -2.4734224653736834 -0.002569605053014527
H 1.92881669980135 -2.488478026731299 -0.0016223755481325267
H 4.065647011322687 -1.2439847052363522 0.0008891187711356514
H 4.067926802045058 1.2405607328411234 0.0024298129516823835
H 1.933353401758573 2.4889357045239375 0.0012555781638438008
H -0.539839402880725 2.4793796176839593 -0.00016993069075668356
H -3.6485267285246223 1.261159475315258 -0.8795780362362215
H -3.647980672944489 1.258995795312242 0.8812808192821194
H -2.8403217431956604 2.5678827185530766 0.002004035599054067
*
