! r2scan-3c def2/J RI DEFGRID2 scfconv6 printgap
%output
    printlevel normal
end
%cpcm
    smd true
    smdsolvent "water"
end
* xyz 0 1
C 2.7173342515 2.5103705906 1.1852202416
C 2.2630754251 1.7139747801 -0.0358659997
C 3.0728982413 0.4039145331 -0.2068322433
C 2.0328028049 -0.6607157497 -0.0374434151
C 2.1226595941 -2.0343610193 -0.0801605655
C 0.9696946988 -2.7847443267 0.1086399757
C -0.2476620422 -2.1682837343 0.3398756706
C -0.3426502969 -0.7831635746 0.3819589797
C 0.8084603978 -0.0324745194 0.1852813087
O 0.8787440695 1.3162218616 0.1897812505
O -1.5422714184 -0.1231966613 0.6604955645
C -2.6195966815 -0.3630068162 -0.1339922362
O -2.6009513547 -1.0964190683 -1.105979505
N -3.6764469844 0.3195413396 0.3135528313
C -4.9648488696 0.3018338639 -0.3412731153
C 2.2946118349 2.5747114764 -1.2964920229
H 2.6579035834 1.8900368552 2.0764399099
H 3.7404092783 2.8465329346 1.0477405971
H 2.072104242 3.3738657762 1.3222326192
H 3.5387656459 0.3499866248 -1.1911775512
H 3.8553319255 0.3189661368 0.5475271231
H 3.0701127038 -2.5167698866 -0.2586917506
H 1.0165884504 -3.8611508294 0.0774559067
H -1.1427857444 -2.7537911154 0.4797762335
H -3.5466262271 0.9105127743 1.1207332817
H -5.221281198 1.2980775402 -0.6999933801
H -5.7306662725 -0.0460145301 0.350590482
H -4.899713216 -0.3813874789 -1.1856889236
H 3.3097672498 2.9049843859 -1.4939667276
H 1.654445767 3.4430558996 -1.166144233
H 1.9299038319 2.0023542777 -2.146496099
*
