! wb97x-v def2-tzvp def2/J RIJCOSX DEFGRID2 scfconv7 GCP(DFT/TZ) printgap
%output
    printlevel normal
end
* xyz 0 1
C -2.5035669489199748 0.0733359451825035 0.0021970790412574282
C -1.234067835123155 -0.7638120205715764 -0.0035511446248245025
C 0.019439739506861047 0.06381409677393549 0.007563210596486488
O 0.0687986815601081 1.2816590702677249 0.033060048668557294
O 1.1223061952031417 -0.7145659453813454 -0.012721187696426581
C 2.391478688947116 -0.012615772139666082 -0.004545753192981245
H -2.555770706809177 0.7048841108385503 0.8934853005865531
H -2.552932562133312 0.7204544716865814 -0.8780474843800581
H -3.379789911541212 -0.57996597189384 -0.004883359823368193
H -1.1880706750961902 -1.415361288979443 -0.8841538970093401
H -1.1909113548618306 -1.431319423851576 0.8653654234620751
H 2.47540865060933 0.6278280374195454 -0.886189793079009
H 3.152537375838041 -0.7918834034950295 -0.027731723684363857
H 2.4872415645845565 0.5858007326862266 0.9049394392019338
*
