! r2scan-3c def2/J RI DEFGRID2 scfconv6 printgap
%output
    printlevel normal
end
%cpcm
    smd true
    smdsolvent "water"
end
* xyz 0 1
C -0.1411653483 -1.2032777484 1.14737e-05
C -1.5254522332 -1.1369395475 -2.36025e-05
N -2.203424281 -2.97956e-05 -2.69562e-05
C -1.5254988168 1.1369088384 -1.16518e-05
C -0.1412130922 1.2033023741 2.08035e-05
C 0.5664468716 2.46982e-05 0.0001214921
C 1.9813395224 5.06814e-05 2.53128e-05
N 3.1285211761 -2.89372e-05 -6.47164e-05
H 0.3762098197 -2.1489365857 -0.0001281407
H -2.1235533904 -2.0371579165 -2.26415e-05
H -2.1236358207 2.0371031632 -3.71373e-05
H 0.3761241836 2.1489817687 -0.0002520349
*
