! pbe def2-sv(p) def2/J RI DEFGRID1 loosescf d4 GCP(DFT/SV(P)) printgap
%output
    printlevel normal
end
* xyz 0 1
C -2.3295218377 -0.8089260469 -0.6432425892
C -1.0588261265 -0.5624127497 0.1849298899
H -1.1932783723 -0.9699402433 1.2007152051
C -0.7344025027 0.9489176032 0.329765939
H -1.568644309 1.5248186476 -0.087691721
C 0.5511764512 1.2742855676 -0.4509317806
H 0.8226607249 2.3185985477 -0.2633514684
C 1.7080215041 0.383594841 0.0552330084
H 2.5141056326 0.4276688679 -0.6892208206
C 1.2282517652 -1.0904477969 0.1916713508
H 1.1148607633 -1.3200920138 1.2654794809
O -0.0096291259 -1.2669527204 -0.4627861081
O 2.1336934714 -2.0057746841 -0.3099142479
O 2.13782099 0.8949520218 1.2950942234
O 0.3805168942 1.1599271205 -1.8377492668
O -0.6329454035 1.3304000923 1.6804596533
O -3.456113769 -0.1643188099 -0.1163822661
H -2.4840511242 -1.8915804154 -0.7279333573
H -2.1930792111 -0.397054549 -1.6454523342
H 2.0387335331 -2.0701423662 -1.2723700117
H 2.9836568809 0.4979934536 1.5475930955
H 0.1228722155 0.2476323947 -2.0436721081
H 0.2911853529 1.2464101505 1.9714882894
H -3.6619992127 -0.5206439815 0.759442961
*
