  7
         -7.59113614
 C          0.7366628834       -0.0000011515        0.0122350529
 N         -0.7172776033       -0.0000038676       -0.0714104493
 H          1.1151303269        0.8832981283       -0.5002101817
 H          1.1151086192       -0.8833605941       -0.5001348534
 H          1.1291022359        0.0000707836        1.0388769298
 H         -1.0849811687       -0.8170428580        0.4040496882
 H         -1.0849734666        0.8171020074        0.4039691495
