! pbe def2-sv(p) def2/J RI DEFGRID1 loosescf d4 GCP(DFT/SV(P)) printgap
%output
    printlevel normal
end
* xyz 0 1
C -2.5589091273 -0.6794861486 -0.3154123194
C -1.1756506541 -0.3046006219 0.226977435
H -1.2175116574 -0.2625136874 1.3266546854
C -0.7052909723 1.0571864407 -0.3236625769
H -0.7080546089 1.0024955706 -1.4193332624
C 0.7280398759 1.3409751066 0.1690995076
H 0.7329210454 1.4286615531 1.2625859022
C 1.6385893669 0.164862357 -0.2170401938
H 1.7050662648 0.1054803311 -1.3164163777
C 1.0275814123 -1.1531553422 0.3104621311
H 1.0386572663 -1.123991103 1.413868968
O -0.2794879649 -1.3302615214 -0.1699140538
O 1.7853232382 -2.2473832208 -0.0654186184
O 2.9116820329 0.3674605368 0.3383465942
O 1.2054576778 2.5775640528 -0.2828987374
O -1.5936615908 2.0913676297 -0.0041680509
O -3.1225626153 -1.7696738117 0.3638517734
H -2.466667233 -0.8901830355 -1.3875441129
H -3.2350909675 0.1645261086 -0.1713193902
H 1.5346739827 -2.5169948455 -0.9636078001
H 3.4255421447 -0.4512439604 0.2544772041
H 1.2726836971 2.5797394297 -1.2486842528
H -1.4765231313 2.3606138593 0.9183690549
H -2.5387111632 -2.5349276547 0.2592983271
*
