! pbe def2-sv(p) def2/J RI DEFGRID1 loosescf d4 GCP(DFT/SV(P)) printgap
%output
    printlevel normal
end
* xyz 0 1
C -1.7461964649 -1.0153124048 -0.7357898299
C -1.0598836614 -0.4948220542 0.5344142405
H -1.7674595932 -0.6247898949 1.3626109791
C -0.7189527606 0.9985514449 0.4157516273
H -1.5695056414 1.4941867287 -0.0711431059
C 0.5313495005 1.2441749998 -0.4458138198
H 0.8420710827 2.2857849111 -0.2600529857
C 1.6838908442 0.3414802448 0.0316068966
H 2.4913600007 0.348761163 -0.7094024046
C 1.2401437734 -1.1281040871 0.182166624
H 1.9956227239 -1.638302992 0.8008614842
O 0.0565930968 -1.2831691182 0.9250083607
O 1.16265814 -1.6940068025 -1.0884942092
O 2.2410512412 0.82304601 1.2259656003
O 0.1965080411 1.0615071578 -1.794705653
O -0.449485427 1.5719481391 1.6770304188
O -3.0201393778 -0.4101127204 -0.8002766341
H -1.8408079212 -2.1057096202 -0.6489081637
H -1.1417688404 -0.7660310388 -1.6119938328
H 1.0470374047 -2.6534176061 -1.0192854457
H 1.5177979175 1.0285657625 1.843985866
H 0.9598751602 1.270073933 -2.3516524175
H -1.244442752 1.5394895522 2.227894046
H -3.4311703119 -0.633402542 -1.6466465094
*
