! pbe def2-sv(p) def2/J RI DEFGRID1 loosescf d4 GCP(DFT/SV(P)) printgap
%output
    printlevel normal
end
* xyz 0 1
C -2.280357568 -1.1119751251 -0.0760302047
C -0.8841593236 -0.5614708739 0.2440007445
H -0.7266765182 -0.5637942909 1.3324789244
C -0.7203930415 0.8780327739 -0.274570068
H -1.0773326808 0.9024561038 -1.317636315
C 0.7713493533 1.2814476308 -0.2756367452
H 0.836954103 2.2636573414 0.214392364
C 1.6293808872 0.2756021547 0.5125442433
H 2.6866403761 0.5127054324 0.3250481445
C 1.4111838375 -1.1498732611 -0.0392724821
H 1.7263184499 -1.869170883 0.733512257
O 0.0618329337 -1.4084048283 -0.3835688296
O 2.1998203791 -1.398897369 -1.1449619689
O 1.3522081804 0.269804242 1.8876500854
O 1.3139943557 1.3261961438 -1.5731688366
O -1.4288837501 1.8055645242 0.5074411249
O -3.2875177198 -0.3872034229 0.5891579116
H -2.3055026078 -2.1762631967 0.174112113
H -2.4724331509 -1.0071281071 -1.1463717706
H 1.987178943 -0.7472432658 -1.8369109819
H 1.6055750431 1.1190032991 2.279237911
H 0.9306656929 2.0649486334 -2.0673162763
H -2.3515394981 1.5027256498 0.5728311127
H -3.3265928452 -0.6621937588 1.5161745535
*
