! pbe def2-sv(p) def2/J RI DEFGRID1 loosescf d4 GCP(DFT/SV(P)) printgap
%output
    printlevel normal
end
* xyz 0 1
C -2.5216548053 0.7330655786 -0.0047636902
C -1.2142505454 -0.0071544716 0.0032494582
C -1.1939900955 -1.3916192696 0.0002732489
C 3.93474e-05 -2.0902620845 0.0018866052
C 1.1940552885 -1.3915660737 0.0001051635
C 1.2142525415 -0.0071207904 0.0031622929
C -2.26897e-05 0.6986929678 0.0121527122
N -5.11762e-05 2.0804438059 -0.0458734226
C 2.5216359126 0.7331450052 -0.0046776812
H -3.3493135762 0.0303836361 -0.0515489042
H -2.6375612819 1.3317080984 0.8998344255
H -2.5827591322 1.3958749807 -0.8668281396
H -2.130254551 -1.932458742 -0.0035618906
H 7.09917e-05 -3.1702312476 0.0008312521
H 2.130324719 -1.9323976407 -0.0034673659
H -0.8438261405 2.5272442626 0.2723880153
H 0.8437172429 2.5272963294 0.2723261226
H 3.3493541914 0.0305385542 -0.0516652236
H 2.5826488132 1.3961606334 -0.8665801237
H 2.6375358674 1.3315775462 0.9000603878
*
