! r2scan-3c def2/J RI DEFGRID2 scfconv6 printgap
%output
    printlevel normal
end
%cpcm
    smd true
    smdsolvent "water"
end
* xyz 0 1
C -2.3771584024 0.3517836932 -1.2203542566
C -1.7262260255 -0.0592012473 0.0654187522
C -2.4009406251 -0.4281145386 1.142305034
C -0.2428497071 -0.0231592693 0.0521573523
C 0.4845435261 -1.1278689429 -0.3744506511
C 1.8673986139 -1.0877768667 -0.4030601888
C 2.5376923936 0.0582602097 -0.0093540678
C 1.8196360214 1.1631919782 0.4163096631
C 0.4367810326 1.1230786773 0.4466190156
H -2.0433147429 -0.2968283791 -2.029231493
H -3.4595526848 0.2990023939 -1.1427891302
H -2.0852795805 1.3702384609 -1.4736403125
H -1.9006667224 -0.7178808815 2.0510438661
H -3.4776458284 -0.455867994 1.1555203417
H -0.0397558344 -2.0223493316 -0.6787275154
H 2.4232810293 -1.9528255204 -0.7334198176
H 3.6166987745 0.0897975603 -0.033142185
H 2.3380575272 2.0586987741 0.7257266981
H -0.1251799855 1.9832124048 0.7811822862
*
