! r2scan-3c def2/J RI DEFGRID2 scfconv6 printgap
%output
    printlevel normal
end
%cpcm
    smd true
    smdsolvent "water"
end
* xyz 0 1
C -0.4213952169 -1.0415041685 4.94809e-05
C 0.943801416 -1.2073084876 2.54514e-05
C 1.7826958786 -0.0895510819 -0.0001005711
C 1.2250251957 1.1941661612 -1.77446e-05
C -0.1394972612 1.3549425143 7.6659e-06
C -0.9860906976 0.2395143673 -4.9534e-05
C -2.4248502521 0.4065340671 -2.89396e-05
O -3.2479785293 -0.4921285585 7.96e-06
O 3.1212635393 -0.1911175179 2.99024e-05
H -1.0855908596 -1.8927362182 0.0001463176
H 1.3672679818 -2.2003365185 3.04396e-05
H 1.8916816376 2.0413406361 0.0003507757
H -0.5675956137 2.3456229174 0.0003967824
H -2.7640161816 1.4596516089 -1.9673e-05
H 3.4116729327 -1.1177791392 -0.000144932
*
