! pbe def2-sv(p) def2/J RI DEFGRID1 loosescf d4 GCP(DFT/SV(P)) printgap
%output
    printlevel normal
end
* xyz 0 1
C -1.8046582191 -0.6048401392 -1.0997660703
C -1.2437815904 -0.5043022322 0.3365789292
H -2.0476710035 -0.7858970951 1.0298626484
C -0.7867179116 0.9155824669 0.6888360912
H -1.5845431287 1.608533523 0.3905878161
C 0.478882975 1.3234217281 -0.0955425391
H 1.0836398329 1.9812841299 0.5468077108
C 1.3583312023 0.1077330223 -0.4239748896
H 1.0881090675 -0.2913603239 -1.4140544174
C 1.104645665 -1.0089327136 0.5964537914
H 1.325761877 -0.6300336661 1.6142170518
O -0.222154902 -1.4735059868 0.5433159285
O 1.9428781871 -2.0668289653 0.2764495654
O 2.7010854238 0.5189499239 -0.4082817836
O 0.0652699235 2.0097513791 -1.2510176895
O -0.5816295569 0.964184121 2.080649141
O -3.1640180935 -0.2535740537 -1.1678788821
H -1.7466219615 -1.6529807394 -1.4017268937
H -1.2109884862 0.003390297 -1.7884040461
H 1.6525997916 -2.8600614892 0.7513018793
H 3.2668171312 -0.2650761944 -0.477129782
H 0.842375072 2.3544223568 -1.7143952268
H -0.5354018508 1.8843889075 2.3788884474
H -3.2582454376 0.7069033638 -1.1093163608
*
