! pbe def2-sv(p) def2/J RI DEFGRID1 loosescf d4 GCP(DFT/SV(P)) printgap
%output
    printlevel normal
end
* xyz 0 1
C -1.9319527648 -0.5606984425 -0.7742352007
C -1.21261047 -0.0725236672 0.4971714141
H -1.9275950976 -0.0347424944 1.3282084751
C -0.6144483252 1.3337696891 0.3301079445
H -1.3465399371 1.9667756357 -0.1814960853
C 0.676458444 1.3133325014 -0.5123122582
H 1.1516642586 2.300612313 -0.3778099541
C 1.6482650252 0.2436787596 0.0311097748
H 2.4446353329 0.0647942427 -0.7038428388
C 0.9460028081 -1.1100756147 0.2352274342
H 1.5886696308 -1.7256863416 0.8896958843
O -0.2431442179 -1.0116138302 0.9610175842
O 0.7962647593 -1.7072324612 -1.0146303425
O 2.1756837362 0.6277876469 1.2790190562
O 0.3343156909 1.1199769704 -1.8580358704
O -0.3809588407 1.9357315484 1.5787139634
O -2.2769816899 -1.9218849976 -0.6944309265
H -1.2750848912 -0.4633335736 -1.6389673905
H -2.8185149059 0.0656808838 -0.931663599
H 0.1806813896 -2.4539337168 -0.943170696
H 2.8313607874 1.3304248669 1.1587427762
H 1.131806629 1.1178413339 -2.4068494784
H 0.2911669756 1.4144999749 2.0505226189
H -2.865240913 -2.0621804646 0.0610141527
*
