! pbe def2-sv(p) def2/J RI DEFGRID1 loosescf d4 GCP(DFT/SV(P)) printgap
%output
    printlevel normal
end
* xyz 0 1
C -2.4022139815 -0.7105313387 -0.0172246611
C -0.9681427483 -0.3036352731 0.3456437859
H -0.9192246469 -0.0298184276 1.410888722
C -0.5082897229 0.9011180584 -0.4975851961
H -0.5143817745 0.6062258244 -1.5529933259
C 0.9278876504 1.3145789605 -0.1031669159
H 0.8768462314 2.10369834 0.6561483374
C 1.6978150612 0.1339826277 0.526681238
H 2.7623620845 0.2716505855 0.2931753758
C 1.2250468186 -1.1737866698 -0.1264537568
H 1.7649750296 -2.0363986795 0.2956509311
O -0.127189938 -1.4367038279 0.1334917651
O 1.4850916097 -1.0584919449 -1.4952070607
O 1.4731009512 0.1427326471 1.9119280684
O 1.6326893027 1.8736708063 -1.177655487
O -1.4124951059 1.9705437417 -0.4126615741
O -2.9827929467 -1.6062400702 0.8945984456
H -2.3905828597 -1.2323956693 -0.9756416813
H -3.0040843954 0.2013987281 -0.114648775
H 1.2465531056 -1.8819047641 -1.947810959
H 2.053434356 -0.4955824571 2.3512720364
H 1.748397036 1.1960277317 -1.8621888049
H -1.35309304 2.3838373166 0.4613338476
H -3.0246002618 -1.1966161926 1.7704730046
*
