! pbe def2-sv(p) def2/J RI DEFGRID1 loosescf d4 GCP(DFT/SV(P)) printgap
%output
    printlevel normal
end
* xyz 0 1
C -2.0722018438 -1.3839547915 -0.1472901142
C -1.0151942922 -0.5079255083 0.5409969007
H -1.4548952993 -0.1548160292 1.4838587423
C -0.6122259712 0.7025036334 -0.3086216159
H -0.4595061141 0.3997088402 -1.3510475039
C 0.7237455284 1.2511990891 0.2282036983
H 0.6344518217 1.4066469564 1.3185112
C 1.8222989413 0.212764741 -0.0380356098
H 2.190252351 0.3520919541 -1.0592537353
C 1.2322570846 -1.217486217 0.0634070146
H 1.9790533354 -1.856578348 0.5539717417
O 0.1200357992 -1.2785094979 0.9278297335
O 0.9303449818 -1.6699668 -1.2170675895
O 2.9409092751 0.3636858824 0.7913420938
O 1.0523491932 2.4688833289 -0.3874493515
O -1.5836023886 1.7129014168 -0.347927125
O -3.3147748055 -0.7347043145 -0.0183876452
H -2.0855662317 -2.3568508655 0.3624082844
H -1.8023211984 -1.5273751938 -1.1996023502
H 0.841214923 -2.6353780789 -1.2247384781
H 2.6647107561 0.399140854 1.7193933211
H 0.2205064333 2.9072465496 -0.6385418915
H -1.9888020462 1.8255665916 0.5242152379
H -3.98259964 -1.2109979802 -0.5300927162
*
