! pbe def2-sv(p) def2/J RI DEFGRID1 loosescf d4 GCP(DFT/SV(P)) printgap
%output
    printlevel normal
end
* xyz 0 1
C -1.7767482746 -1.0471177034 -0.6351720391
C -1.0743664096 -0.5032253344 0.6327377135
H -1.7356438939 -0.6178043608 1.4985294852
C -0.7294533273 0.9893711222 0.5291647883
H -1.6222745463 1.5026453198 0.1562618137
C 0.4316779656 1.2187581488 -0.4558820693
H 0.7702450714 2.2644996615 -0.357903558
C 1.6249451747 0.3343786947 -0.0435604461
H 2.3760413941 0.3228685227 -0.8416893992
C 1.2228095268 -1.1344237074 0.2023663173
H 2.0087265286 -1.5832923032 0.8311434439
O 0.0588652603 -1.2943985724 0.9744541005
O 1.1545340492 -1.7807696674 -1.033646634
O 2.2619178622 0.872116523 1.0860260078
O -0.0462076371 0.9827755622 -1.7534928473
O -0.3853156166 1.4493536912 1.8204637051
O -2.7510920692 -0.1731654657 -1.1518938854
H -2.2932063725 -1.9721113108 -0.3667100233
H -1.0196780999 -1.2659899756 -1.3905539137
H 1.0653353901 -2.7366374402 -0.902496982
H 1.5994150157 0.9579438004 1.795763626
H 0.6722148434 1.0822905454 -2.3935584425
H -0.5709978284 2.3957817383 1.895262947
H -2.3079385308 0.4575353536 -1.7386926843
*
