! pbe def2-sv(p) def2/J RI DEFGRID1 loosescf d4 GCP(DFT/SV(P)) printgap
%output
    printlevel normal
end
* xyz 0 1
C -2.1425840345 -1.0209875399 -0.4910768491
C -1.2169537968 -0.1744859945 0.4039698426
H -1.7833996508 0.2063400141 1.2629906828
C -0.6508106126 1.0393083656 -0.3670907541
H -0.5606048698 0.7884942689 -1.4356467824
C 0.7539325324 1.3423548214 0.1698116902
H 0.7024329448 1.4797589512 1.255427285
C 1.6597849038 0.140627747 -0.143787694
H 1.8307293364 0.0932181063 -1.23186237
C 0.9721030037 -1.1751611332 0.2689520178
H 1.6389321623 -1.6955809483 0.9715322188
O -0.199429363 -0.9676411257 1.0108063135
O 0.7523568656 -1.9264056486 -0.8835617714
O 2.88602177 0.2316675643 0.5328873049
O 1.3068424569 2.5281303267 -0.3339749936
O -1.4483360045 2.1830834086 -0.1926598265
O -2.6239425365 -2.1739314813 0.1490216243
H -1.5886103874 -1.3756771287 -1.3627731035
H -2.9756860567 -0.3897531935 -0.8290429355
H 0.4444140574 -2.8143469694 -0.6436308158
H 3.22686488 1.1347870024 0.4287460846
H 1.1621011005 2.5832951322 -1.2899046985
H -2.2762537159 2.0961677632 -0.6848797638
H -3.0698542703 -1.9281805025 0.9717671783
*
