! pbe def2-sv(p) def2/J RI DEFGRID1 loosescf d4 GCP(DFT/SV(P)) printgap
%output
    printlevel normal
end
* xyz 0 1
C -2.1161183196 -1.1901796407 -0.1925832918
C -1.2549940622 -0.3390349039 0.760811927
H -1.8413248326 -0.1466481227 1.6648481025
C -0.905689681 1.0226579466 0.1348026665
H -1.1588575969 1.0088322844 -0.936828354
C 0.5995909707 1.285983723 0.2521835109
H 0.8601375929 1.3829285006 1.3200539083
C 1.357031724 0.1000140198 -0.355960273
H 1.05592978 -0.01583988 -1.4028748053
C 0.9953399293 -1.1883324577 0.408827473
H 1.8130975726 -1.4409871216 1.0995522584
O -0.1123036315 -1.0322183926 1.2593965712
O 0.8126145549 -2.216477939 -0.5197524827
O 2.7381427845 0.3430422673 -0.3927750812
O 0.8978683821 2.4829673869 -0.4228481446
O -1.6584975445 2.0088441391 0.7962899636
O -1.6164611648 -1.2783116604 -1.503032227
H -3.0933695634 -0.7113515336 -0.2771084867
H -2.24227259 -2.1867156148 0.247508713
H 0.7850917277 -3.0771565649 -0.0726745294
H 3.0951069886 0.3960953521 0.507025623
H 1.8247353557 2.4543075743 -0.7086284192
H -1.399791153 2.8750502681 0.4466947193
H -0.7586388291 -1.7442444327 -1.4758218079
*
