! pbe def2-sv(p) def2/J RI DEFGRID1 loosescf d4 GCP(DFT/SV(P)) printgap
%output
    printlevel normal
end
* xyz 0 1
C 1.0398581601 -1.255943744 0.2257984017
C 0.5215336653 -0.0024501869 -0.484699458
C 1.0278177003 1.2589611408 0.2195257918
C -0.9850296161 -0.0153504083 -0.5551306916
C -1.7882556255 0.0139580815 0.4923955305
H 0.6872519251 -2.1520835976 -0.2796932219
H 0.6897377556 -1.2819140477 1.2542917003
H 2.1272449739 -1.2640764523 0.2292776343
H 0.9139600369 -0.0028945646 -1.5070468192
H 2.1150621262 1.2804389687 0.2156196118
H 0.6608931957 2.1491156442 -0.2863541319
H 0.6854469642 1.2842144763 1.2505020265
H -1.4116437507 -0.0564274023 -1.5487848523
H -2.8595399776 -0.0003343938 0.3868802688
H -1.4149462128 0.0537935549 1.5020671558
*
