! wb97x-v def2-tzvp def2/J RIJCOSX DEFGRID2 scfconv7 GCP(DFT/TZ) printgap
%output
    printlevel normal
end
%cpcm
    smd true
    smdsolvent "water"
end
* xyz 0 1
C -0.8303161821860656 -2.287642496733458 0.00010138868803201913
C 0.06816301771656094 -1.0823812332536205 0.00020666367914841816
C 1.4544613350290783 -1.2552819030210933 6.982436874445626e-05
C 2.3207798180862063 -0.16652401041644097 -9.535897499768226e-05
C 1.820680328364763 1.13669971084342 -0.000167295102565938
C 0.450887829768375 1.3337105366366142 -2.1183405240958734e-05
C -0.4303293016338985 0.24075939293137177 0.00014487166167196513
C -1.873571683454144 0.49305355443606214 0.00020131747465142928
O -2.379451474339749 1.6135478856131082 -0.0004565564651814165
H -1.4795105031722777 -2.3072209801722137 0.8815158164673504
H -1.4783718851220673 -2.3077025755082943 -0.8821558828638061
H -0.23085882400725996 -3.200422923720365 0.0007200765279467831
H 1.8592320543342495 -2.2630288068553326 8.819906213109056e-05
H 3.3932427519857713 -0.33570795479036597 -0.00015049832777810467
H 2.4979896622299598 1.9842807832164147 -0.0003252266625625986
H 0.03678319605867206 2.336935628784126 -3.595395535082591e-05
H -2.5280867143954793 -0.39567364226869617 0.002355580162004454
*
