! pbe def2-sv(p) def2/J RI DEFGRID1 loosescf d4 GCP(DFT/SV(P)) printgap
%output
    printlevel normal
end
* xyz 0 1
C 2.4095261503 0.6892354582 -0.0001475693
C 2.3841797408 -0.7154486472 8.86607e-05
C 1.196145034 -1.3918725507 7.77773e-05
C -0.0241667348 -0.6839914483 -2.16151e-05
C 0.0009173396 0.7384788305 9.40576e-05
C 1.2437984289 1.403126956 -6.25131e-05
C -1.2375055714 1.4136560935 0.0001039482
C -2.3953642287 0.6848543965 -4.95471e-05
C -2.3056633215 -0.7189177816 -5.5502e-05
N -1.1818452025 -1.3816026111 -2.06426e-05
H 3.3601331843 1.2004331888 0.0002038098
H 3.3166441194 -1.2591548301 -0.0003720363
H 1.1564030352 -2.4693115399 7.916e-07
H 1.2538609013 2.4834484699 0.000127294
H -1.251830483 2.4944248582 7.53337e-05
H -3.3630735006 1.1606089423 -9.58869e-05
H -3.2047906771 -1.3219013399 1.74974e-05
*
