! wb97x-v def2-tzvp def2/J RIJCOSX DEFGRID2 scfconv7 GCP(DFT/TZ) printgap
%output
    printlevel normal
end
%cpcm
    smd true
    smdsolvent "water"
end
* xyz 0 1
C -3.4353639555617055 0.6229035029442307 0.07501708694568905
C -1.9395033575916567 0.5091116618115465 0.08132586598109116
C -1.1345555754794618 1.520412496901821 -0.26633058866630016
C 0.36202495991150296 1.4450799221676907 -0.30878405695028954
C 0.8682243353547765 -0.0061790622792395646 -0.287670272971903
H 0.6097295804425833 -0.45776047293183525 -1.2537099379940393
C 0.11494307467281578 -0.765364398342503 0.8117078759206058
C -1.3751817505383026 -0.8239629591845837 0.5175623168967701
H -1.908782996982325 -1.148817242493104 1.4235206128302174
O -1.5784234578636698 -1.8380738270964097 -0.5106082506589462
C 2.370040128381386 -0.0779511001052715 -0.13491210834241044
C 3.1456441290413633 -0.42153428254967884 -1.1690444927024695
C 2.951219442311657 0.25014259683110307 1.210475341438538
H -3.758760019530959 1.6210867855305173 -0.23227236276576277
H -3.8472771313483154 0.41192808872326814 1.0698661934112146
H -3.8891018920785676 -0.10268737002237127 -0.6129996601223108
H -1.581260417665668 2.475662361132644 -0.5423574852862678
H 0.7292444513195537 1.9520895446529896 -1.2097220943542308
H 0.7775642589041833 2.0056708535663534 0.5417011399001133
H 0.4992050524453748 -1.7857271803482655 0.9224303831016758
H 0.25330884032742473 -0.25567007122218677 1.7728922943679153
H -2.530036184641533 -1.922354308860424 -0.6538994302716731
H 4.228310553252054 -0.4604913889943941 -1.0776913271359005
H 2.716018828374821 -0.6736796397026635 -2.1357128499953557
H 2.6012154292895806 1.2228355696274884 1.5760879261860563
H 2.6454640328866823 -0.49187957890451645 1.9582827898103294
H 4.043453548242714 0.26712419874354176 1.1734265299064446
*
