! wb97x-v def2-tzvp def2/J RIJCOSX DEFGRID2 scfconv7 GCP(DFT/TZ) printgap
%output
    printlevel normal
end
%cpcm
    smd true
    smdsolvent "water"
end
* xyz 0 1
C -1.0395448032526284 0.776322532120144 -0.0697075281267522
C -1.0410161831015663 -0.774048154634894 -0.07086436586720539
C 0.4282030414076572 -1.1533345493254483 0.20427637509354776
N 1.254781830119931 -0.0015593147431224204 -0.22276623478247745
C 0.43099422021151806 1.1525714911230167 0.20340106778699862
H -1.711073338860467 1.1940173878485199 0.6859755683779368
H -1.3562105444945354 1.1634368239156696 -1.0428153610107125
H -1.7149159037418205 -1.1917583384032484 0.6826986419705402
H -1.356241320734794 -1.1590109372819366 -1.0453098052051315
H 0.5832629688350611 -1.3070482798481533 1.2786983765896212
H 0.742561593238504 -2.06416651161804 -0.31189159903133434
H 1.2271146289199777 -0.0019534150692792434 -1.2415668605370769
H 0.5874404190936521 1.307523775463928 1.277430741553497
H 0.746886530211781 2.061962739693068 -0.3143593937906571
*
