! wb97x-v def2-tzvp def2/J RIJCOSX DEFGRID2 scfconv7 GCP(DFT/TZ) printgap
%output
    printlevel normal
end
* xyz 0 1
C -2.9121238085273746 -0.05289572418029774 -0.07162262639899161
O -1.648212221890525 0.6529726387004259 -0.22047836601222773
C -0.5516996815331778 -0.041594525918096655 0.11611582170667663
O -0.5533300487027717 -1.19055646527911 0.5014403088321682
C 0.6507780145545459 0.859923944860752 -0.048465592818309096
Cl 2.2014952112499335 -0.02597982001229713 0.18010749788478037
H -2.929417486095897 -0.9265865671175882 -0.7265250201409986
H -3.675268591512063 0.6645052326989715 -0.3684807377607743
H -3.050239892579045 -0.3534085426121151 0.9690503504282778
H 0.6000434713502852 1.659154003446993 0.6959657045248011
H 0.6497248720970863 1.3037743525885241 -1.0459437328657968
*
