! pbe def2-sv(p) def2/J RI DEFGRID1 loosescf d4 GCP(DFT/SV(P)) printgap
%output
    printlevel normal
end
* xyz 0 1
C 2.2069e-06 3.8881e-06 3.5171e-06
H 0.5954582155 -0.1889201225 0.8831989729
H 0.6500649109 0.26582556 -0.8228695518
H -0.5592418233 -0.8902665719 -0.2551652192
H -0.6863076004 0.8133148027 0.1947938875
*
