! wb97x-v def2-tzvp def2/J RIJCOSX DEFGRID2 scfconv7 GCP(DFT/TZ) printgap
%output
    printlevel normal
end
%cpcm
    smd true
    smdsolvent "water"
end
* xyz 0 1
C -2.9826689609039616 1.255138986385454 -0.013696148165517645
C -1.7476715862732155 0.3967942019283913 0.011167820851916865
C -1.8392716611917135 -0.9938575564842361 0.012902344404649083
C -0.689221441415684 -1.7837704743607488 0.003484932616065992
C 0.5663367924394892 -1.1945822420362668 -0.00464977105215244
C 0.6769748432852523 0.20645238603327257 -0.0027029587630072634
C -0.4763381925120176 0.9866979815107344 0.005076931217752857
O 1.9582361998410613 0.6962794833986875 -0.0035896236221513683
C 2.110360869531672 2.123862059410379 0.00234996552787993
O 1.7409452524567846 -1.9178693513453624 -0.008758122996500504
H -2.7650238294086527 2.272079834017799 0.3232335366577814
H -3.393912136718368 1.3235173101542672 -1.0279915422582817
H -3.7666662345725332 0.8388682528033117 0.6259390876955927
H -2.814001509367375 -1.4727337334290127 0.021352529221949666
H -0.7629066623218166 -2.8682540176288946 0.00700427185414672
H -0.39898401149691143 2.0679031528537 0.008090190129983034
H 1.6624485886810632 2.5708037467768317 -0.8923126660613553
H 3.185892153868513 2.304142747871022 0.0016374897002073838
H 1.6650650617389948 2.562973027602404 0.9021938527220447
H 1.5186555411603555 -2.858890402621189 -0.006368972979083995
*
