! pbe def2-sv(p) def2/J RI DEFGRID1 loosescf d4 GCP(DFT/SV(P)) printgap
%output
    printlevel normal
end
* xyz 0 1
C 1.8428406622 0.9773175381 -0.2269544009
C 0.9788044424 -0.1058809816 0.4069084442
C -0.3733427037 -0.2858398178 -0.2954188057
H -0.1974407483 -0.4761644522 -1.3679835932
C -1.2730632982 0.9372859293 -0.1532342243
O -1.08785197 -1.3844590989 0.2549268037
H 1.9726201669 0.7856002678 -1.2897737579
H 2.8228666031 0.9916657054 0.2427650457
H 1.3925551989 1.9579766897 -0.1043918451
H 0.7959006227 0.127685785 1.4577970841
H 1.5175941177 -1.0565217027 0.3661752326
H -2.2514077 0.7101602743 -0.5681843976
H -1.3944305992 1.1847005595 0.898019277
H -0.8512074353 1.7851588373 -0.6817701417
H -0.5434678398 -2.1810882888 0.2026500324
*
