! wb97x-v def2-tzvp def2/J RIJCOSX DEFGRID2 scfconv7 GCP(DFT/TZ) printgap
%output
    printlevel normal
end
%cpcm
    smd true
    smdsolvent "water"
end
* xyz 0 1
C 2.406335732229416 -0.6625068403591318 -0.13822288310313097
C 1.117535836461096 -0.09922762666073677 0.419130480329196
H 1.1506267413829878 -0.1162434581735967 1.519420006056601
C 0.7606190461489213 1.3051501581733838 -0.059243643237231844
C -0.7609354483731511 1.305217841135929 0.059065323761536205
C -1.1185906310239893 -0.09902084322286409 -0.41961223848826223
H -1.1553350110992433 -0.11515631679483089 -1.519750182584043
O 0.00042887775064952743 -0.9359540557931028 -0.00274668170881243
C -2.405422448193772 -0.6631626571215632 0.14155507282164081
H 2.3829045361616883 -0.6616380333396478 -1.2331158622661231
H 3.2525898432401004 -0.051148815471492 0.1926748081092852
H 2.5721718325787966 -1.686746234360966 0.21005180819403785
H 1.2480141708558186 2.0780132286433712 0.5406866929801738
H 1.0647869262202747 1.4301594979378522 -1.105633024616305
H -1.0648782131489762 1.4302085860690212 1.1055141096173207
H -1.248295311612356 2.078301754952398 -0.5405989860506102
H -3.2529123230595625 -0.051437019575665065 -0.18551599807232677
H -2.378104689463298 -0.6636838002301402 1.2363629460163854
H -2.572399988689193 -1.6869680281695627 -0.2074427366881732
*
