! r2scan-3c def2/J RI DEFGRID2 scfconv6 printgap
%output
    printlevel normal
end
%cpcm
    smd true
    smdsolvent "water"
end
* xyz 0 1
C -3.2871970816 0.6973711624 0.4061587631
C -2.4496173862 -0.3871925268 -0.2629885131
C -0.9582060306 -0.2098570742 -0.1397456248
C -0.1308718107 -1.3180923138 -0.2990284322
C 1.2427001799 -1.2034077627 -0.2189591305
C 1.8420337749 0.0271554935 0.027022672
C 1.0190402745 1.1318562016 0.1869521992
C -0.3586917054 1.017602106 0.1031831081
C 3.3328991417 0.1410266653 0.129559278
H -4.3386091698 0.4214495842 0.3741140407
H -3.1749139837 1.6513521776 -0.1028621076
H -2.9941693012 0.8187068549 1.4465785132
H -2.7035816147 -0.4276510311 -1.3273815458
H -2.7145630306 -1.3574829913 0.1650153461
H -0.5740850761 -2.2856565369 -0.4903693355
H 1.8619447454 -2.0800322662 -0.3470159856
H 1.4589554847 2.100524618 0.3789985387
H -0.9623684759 1.9024789504 0.2302863541
H 3.6782336614 -0.2987230309 1.0648899849
H 3.8140613011 -0.3928654252 -0.6873778715
H 3.6449826885 1.1817471988 0.1036313231
*
