! r2scan-3c def2/J RI DEFGRID2 scfconv6 printgap
%output
    printlevel normal
end
%cpcm
    smd true
    smdsolvent "water"
end
* xyz 0 1
C 0.658455315 -3.407e-07 1.05517e-05
C -0.6584554103 5.475e-07 3.8107e-06
H 1.2286942687 0.9141934449 -2.76221e-05
H 1.2286901999 -0.914195423 -7.94728e-05
H -1.228694447 -0.9141906916 -6.0991e-06
H -1.2286888865 0.9141902059 -5.79496e-05
*
