! pbe def2-sv(p) def2/J RI DEFGRID1 loosescf d4 GCP(DFT/SV(P)) printgap
%output
    printlevel normal
end
* xyz 0 1
C 1.4528243552 0.4104316023 1.1765633518
C 0.6847251909 0.440270573 -0.1393800347
C 1.3971534606 -0.4039014545 -1.2037958719
C -0.7688390142 0.0012203393 -0.0611939983
O -1.4457919783 -0.0612982158 -1.0721670565
C -1.3367463025 -0.3340609727 1.2831630234
H 0.9884816748 1.0450466764 1.9252263051
H 1.5223735237 -0.6024993341 1.5638779008
H 2.4631579988 0.7741885048 1.0058610516
H 0.6485787348 1.4737268319 -0.5073361219
H 1.5017490215 -1.4307031314 -0.8600467501
H 2.3854459733 -0.0009981542 -1.4057589837
H 0.8206997524 -0.4054242446 -2.1259443554
H -2.3721693466 -0.6462163963 1.1759392452
H -1.2828450884 0.5374740876 1.93017001
H -0.755567886 -1.1295932879 1.7410546983
*
