! pbe def2-sv(p) def2/J RI DEFGRID1 loosescf d4 GCP(DFT/SV(P)) printgap
%output
    printlevel normal
end
* xyz 0 1
C -1.8124798335 0.0410531797 -0.4232652535
C -1.2016813855 -1.3135886196 -0.0404198768
C 0.2518598827 -1.1647928053 0.4240933989
C 0.940422485 -0.0272312395 -0.3327573162
C 0.2974357122 1.3180117613 0.0494034354
C -1.1860268777 1.159261231 0.4029679728
O 2.341457159 -0.0179432031 -0.1279621711
H -2.8916255654 0.0170938108 -0.2669977768
H -1.6367961393 0.2458054921 -1.480791413
H -1.7825639997 -1.7694396629 0.7627239141
H -1.2469067185 -1.984222073 -0.8996779065
H 0.2875356572 -0.9441717346 1.4930432113
H 0.7995808489 -2.0935279759 0.2564414724
H 0.836125781 -0.2025729573 -1.4090171707
H 0.8359664318 1.7348777609 0.9033698822
H 0.416976904 2.0156708082 -0.7806183252
H -1.2988146997 0.9214796611 1.4618587821
H -1.7063532615 2.1001722969 0.2202690398
H 2.5188776407 0.0921598485 0.8170521947
*
