! pbe def2-sv(p) def2/J RI DEFGRID1 loosescf d4 GCP(DFT/SV(P)) printgap
%output
    printlevel normal
end
* xyz 0 1
C -2.2779405251 -1.1013960796 -0.0843591148
C -0.8826569674 -0.560615462 0.2556783336
H -0.7445806422 -0.5530909317 1.3470855331
C -0.7028483862 0.8750056227 -0.2685933719
H -1.040901046 0.9118964627 -1.3164201126
C 0.7853749463 1.2769297714 -0.2676468603
H 0.8394849674 2.261070829 0.2157158785
C 1.6393925208 0.2649489302 0.5233539875
H 2.704388581 0.4848868781 0.3521843459
C 1.4144959504 -1.1550945508 -0.0411672056
H 1.7690252102 -1.8832753389 0.7056471171
O 0.0612957703 -1.4292320003 -0.3438731432
O 2.1700956118 -1.3694893967 -1.1804998217
O 1.3550461487 0.2528263318 1.8978969679
O 1.2300807969 1.3378289598 -1.6045351909
O -1.4110292844 1.8021641504 0.5141870088
O -3.2920157119 -0.3693071447 0.5609559843
H -2.314019996 -2.1647985661 0.1691180961
H -2.4504958798 -0.998273197 -1.1581621403
H 1.8388072213 -0.7833136923 -1.8851860602
H 1.5746096302 1.112163322 2.2881151375
H 1.9945030966 1.9268581649 -1.6749975103
H -2.3422873779 1.5210587906 0.5431415067
H -3.3416299834 -0.6341269343 1.4905698458
*
