! pbe def2-sv(p) def2/J RI DEFGRID1 loosescf d4 GCP(DFT/SV(P)) printgap
%output
    printlevel normal
end
* xyz 0 1
C 1.3328023878 0.9384011075 0.939875192
C 0.7027110781 0.3392089302 -0.3204517746
C 1.4619602225 -0.9140495122 -0.762280049
C -0.7690262897 0.0416847899 -0.0998897048
O -1.6228909825 0.6133901255 -0.7532671104
C -1.1202689403 -0.9727073267 0.9447459172
H 2.3313499523 1.2991064896 0.7078717612
H 0.7409353297 1.7754631006 1.3031157639
H 1.4123587895 0.1924906399 1.7254181076
H 0.7468644348 1.0825181531 -1.1247164218
H 1.5226122568 -1.6361617326 0.0467431659
H 2.4726626389 -0.6396734919 -1.052876047
H 0.9728066862 -1.3770252482 -1.6163701281
H -2.2003348489 -1.0662015817 1.0171421294
H -0.712822547 -0.6708371294 1.9052540055
H -0.6891010895 -1.9342677047 0.6801478363
*
