! r2scan-3c def2/J RI DEFGRID2 scfconv6 printgap
%output
    printlevel normal
end
* xyz 0 1
C -1.8505279159 0.0179684441 -0.6190647641
C -0.8465270534 -0.0468454595 0.5291958063
C 0.1113535658 -1.24131321 0.3806611377
C 1.3984413458 -0.698080539 -0.2697592315
C 1.1702026513 0.8039992238 -0.4785700919
C 0.0889606289 1.1656966019 0.5362578286
H -2.4738860468 0.9050385318 -0.529997315
H -1.339460627 0.0488460583 -1.577264494
H -2.497691101 -0.8562136734 -0.6042808259
H -1.404749215 -0.111450056 1.4676641412
H 0.3358968949 -1.6638941739 1.3601368486
H -0.340931106 -2.0282693706 -0.2213132468
H 2.2498789384 -0.8596567017 0.3914927532
H 1.6146658576 -1.1992302913 -1.2123350253
H 2.082144974 1.3811801763 -0.3323016993
H 0.8105081613 0.997795576 -1.4893768538
H 0.535073903 1.2787274531 1.5257084389
H -0.4283110422 2.0901442194 0.2837641434
*
