! pbe def2-sv(p) def2/J RI DEFGRID1 loosescf d4 GCP(DFT/SV(P)) printgap
%output
    printlevel normal
end
* xyz 0 1
C -2.3205770286 -1.0065904872 -0.3504579074
C -0.9519566691 -0.5623841882 0.1642022096
H -0.8909752024 -0.7823039454 1.242377031
C -0.7443216522 0.9583677506 -0.0242170927
H -1.3905745052 1.3270136961 -0.8321175673
C 0.7171744869 1.2477480817 -0.435825261
H 0.9293568529 2.2954637402 -0.1960447259
C 1.6577104102 0.346612433 0.375748503
H 2.6927139601 0.4995916014 0.0472848975
C 1.3212272509 -1.1413109935 0.0866889404
H 1.326156458 -1.6804116913 1.0560584242
O 0.0446671749 -1.2984235178 -0.5146454644
O 2.2596829824 -1.6452682807 -0.7880015975
O 1.6028029659 0.6283938773 1.750192019
O 0.9117625695 1.1180376873 -1.8167981642
O -1.0027340348 1.6536001218 1.1733083026
O -3.287050259 -0.2413933869 0.3307121324
H -2.4434581529 -2.077824767 -0.1550957283
H -2.3634588302 -0.8343260515 -1.4325289728
H 2.0479443309 -2.5658837115 -1.0109503991
H 0.7521363742 1.0546192796 1.9583481173
H 0.8762136505 0.1790034317 -2.0568366952
H -1.9422915419 1.5552533 1.3925147557
H -4.1709419931 -0.5046656392 0.0387370447
*
