! pbe def2-sv(p) def2/J RI DEFGRID1 loosescf d4 GCP(DFT/SV(P)) printgap
%output
    printlevel normal
end
* xyz 0 1
C -3.4904507315 -0.4527790045 -0.2946556647
O -2.2221251652 0.079461714 -0.6930170423
C -1.2019593219 0.0268429891 0.1558004158
O -1.2781927938 -0.4424847765 1.2720178165
C 0.0547827484 0.5826255688 -0.4738437662
C 0.8209391618 -0.6008249925 -1.1061343007
C 1.7275352331 -1.2483662261 -0.0671815867
C 2.8543716256 -0.2864444897 0.3307216939
C 2.3982059928 1.1747358146 0.2416397288
C 0.916438423 1.2974314556 0.5770643994
H -3.7781760713 -1.2016918007 -1.0296711115
H -4.2077261291 0.3659005402 -0.2869806878
H -3.4092499756 -0.8975014651 0.6977059087
H -0.2543294408 1.266755011 -1.2672204278
H 0.1098644379 -1.3278132175 -1.5034063453
H 1.4221330345 -0.2351285789 -1.9384313927
H 1.124871448 -1.5064674524 0.8060296534
H 2.1490403716 -2.1735562959 -0.4617231105
H 3.1728277105 -0.5134110594 1.3489387774
H 3.7151207626 -0.4329485496 -0.3234333552
H 2.9816551963 1.786755807 0.9299037947
H 2.5654688562 1.5616181975 -0.7646466201
H 0.7269957396 0.8452015352 1.5530957172
H 0.6263905393 2.3472683523 0.6349244831
*
