! wb97x-v def2-tzvp def2/J RIJCOSX DEFGRID2 scfconv7 GCP(DFT/TZ) printgap
%output
    printlevel normal
end
* xyz 0 1
C -2.5808042818602592 -0.886767570064579 0.35047371303121677
C -1.1520719200080058 -0.4544689092915998 0.5857888902160197
H -0.9977980880349897 -0.3927864852157671 1.6756547690252672
C -0.8092389690050074 0.8989147888221535 -0.040704379356487116
H -0.9840129132071354 0.8526178147945896 -1.1253264826930218
C 0.6572002189344422 1.221691186988112 0.2060356599410674
H 0.8148273815879743 1.3550100214301257 1.2881247253432666
C 1.539785165551195 0.08242186766987462 -0.28214433838781605
H 1.444744411149026 -0.01115191548364943 -1.3762554666702358
C 1.0878857928248282 -1.2343470657004179 0.35127025097967496
H 1.2177741065841372 -1.2056347272168746 1.4436097375502575
O -0.2886548135696519 -1.4629583720131225 0.03173810072130923
O 1.828779509834137 -2.3318967113429685 -0.11235545643171468
O 2.884688985588723 0.3954013520907767 0.0856199612852475
O 0.9439299160306588 2.443832550514559 -0.484537620882325
O -1.660079377161137 1.8783543816339558 0.5608891589553799
O -2.8505084983903988 -0.9002889012412802 -1.0588469827040095
H -3.2493886928741476 -0.18952918679484743 0.8709162995750772
H -2.7188579993206954 -1.88711786916852 0.7817597737160713
H 1.8518727579234162 -2.2956835172672663 -1.0806264547008888
H 3.4633783746635762 -0.24945752117556258 -0.3425740470329424
H 1.827217649850519 2.7295792031375665 -0.2167395633320942
H -1.404596490669756 2.7373264960398664 0.19828568061507285
H -3.7587964216535226 -1.2055508565860014 -1.172935236087069
*
