! r2scan-3c def2/J RI DEFGRID2 scfconv6 printgap
%output
    printlevel normal
end
* xyz 0 1
C -2.7812022759 0.219032694 0.999040624
C -1.7529883136 -0.0484275249 -0.0577951278
O -2.0458296099 -0.4219594213 -1.1773712895
C -0.3121763421 0.1656210576 0.36056442
C 0.3811293577 1.1155076197 -0.6238946792
C 1.8554186438 1.2796674604 -0.270805023
C 2.5602554841 -0.0730241132 -0.2702805622
C 1.8811110309 -1.0205033532 0.7134244657
C 0.4070321894 -1.1917428633 0.3618611231
H -2.5662152321 -0.3904002319 1.873533252
H -2.7203344205 1.2636633779 1.2960379567
H -3.7782546935 -0.0005195849 0.6274363737
H -0.2761250642 0.5922765893 1.3658976986
H 0.2800719224 0.7064526762 -1.6316874409
H -0.1188601499 2.0866968584 -0.6063754149
H 2.3292526016 1.9480503803 -0.991523445
H 1.9425288558 1.734747826 0.7182150538
H 2.5187067318 -0.5025815647 -1.2735287988
H 3.610265862 0.0537492136 -0.0013252114
H 2.3734233359 -1.9941814479 0.6950851081
H 1.9683057976 -0.6175422473 1.7246464604
H 0.3096154065 -1.6379502358 -0.6305479215
H -0.0737257367 -1.8607586643 1.0791190207
*
