! wb97x-v def2-tzvp def2/J RIJCOSX DEFGRID2 scfconv7 GCP(DFT/TZ) printgap
%output
    printlevel normal
end
%cpcm
    smd true
    smdsolvent "water"
end
* xyz 0 1
C -0.6937513020299813 -3.0074401597223823 -0.002521661233638029
C 0.6931746326959178 -3.007584822049535 0.0023928549674437525
C 1.3854970711352685 -1.8021417597805285 0.009804037595734375
C 0.7041083392189275 -0.5867106821936895 0.011419928145757966
C -0.7041661780771554 -0.5865648699784759 -0.011570334320394058
C -1.3858145361264373 -1.8018502913305134 -0.00994532896373899
C -1.5404574038181247 0.6704915749264937 -0.00048463766875113677
F -1.6213750697299372 1.2225354826015378 1.2386513194898445
F -1.065216711027723 1.6284146255854803 -0.8318577118172201
F -2.813259485540785 0.42879879702333784 -0.38902062281252814
C 1.5406024346813743 0.6702131159125705 0.0005452181985367767
F 1.0657622383152765 1.6277923354675592 0.8325782095834984
F 2.813513552567002 0.4281677845244282 0.38848236901343675
F 1.621151013946474 1.2228485674427216 -1.2383429932864118
H -1.245738640397034 -3.940757037352389 -0.0033090788439224285
H 1.2449657664065579 -3.9410180593000965 0.003209309931607517
H 2.4681316923462338 -1.8108777601600652 0.016338366790256357
H -2.46845178710412 -1.8103466165987583 -0.016470131282706118
*
