! pbe def2-sv(p) def2/J RI DEFGRID1 loosescf d4 GCP(DFT/SV(P)) printgap
%output
    printlevel normal
end
* xyz 0 1
C -2.22935718 -1.187680619 0.1165409586
C -0.8528131486 -0.5777823126 0.4320389003
H -0.8083669871 -0.3284276721 1.5030491159
C -0.5876030481 0.6886892482 -0.4024980502
H -0.6064492367 0.4111042661 -1.4632572589
C 0.8011095633 1.2767798699 -0.069990307
H 0.6803753555 2.0510615707 0.697160103
C 1.7486826893 0.1875012162 0.4886682806
H 2.771299278 0.4429078071 0.1816299015
C 1.4027019224 -1.1580234732 -0.1591052142
H 2.0673384856 -1.9397943752 0.237874558
O 0.1062058609 -1.5932212147 0.1515073165
O 1.5777380938 -1.0006986441 -1.5366042625
O 1.6536463937 0.0373968131 1.8809666158
O 1.3767407989 1.9366633088 -1.1667844812
O -1.6193449878 1.633640542 -0.251590106
O -3.2956544401 -0.4265153746 0.6141751559
H -2.2859533343 -2.1656240996 0.5989967109
H -2.3167499256 -1.3265982343 -0.9688048583
H 1.4389752081 -1.8486371311 -1.98532813
H 2.1260230391 0.7582125674 2.3226843753
H 1.5520029798 1.2881672068 -1.8660992687
H -1.5428342918 2.0680827853 0.6107550171
H -3.2593964768 0.4494262435 0.1916375493
*
