! wb97x-v def2-tzvp def2/J RIJCOSX DEFGRID2 scfconv7 GCP(DFT/TZ) printgap
%output
    printlevel normal
end
* xyz 0 1
C 2.146153164128797 -2.096034078285755 -0.013891808598851826
C 1.1837817279747411 -0.9671274006617292 0.10840232345254282
C 1.5746619681853715 0.3223322938502833 -0.010986910672635106
C 0.645125651139825 1.4251443085906899 0.13060119063771058
O 1.0119397180029701 2.603068505202759 -0.015593243227354427
C -0.7752450034808461 1.0967013859424997 0.5153441257739616
C -1.2622522680400872 -0.2556577429032806 -0.027189329681782306
C -0.2432389852555795 -1.3308753784376917 0.3819842172694188
C -1.3859709000066311 -0.19323280928660103 -1.5546327114758947
C -2.6275040259423386 -0.5888642161043952 0.5752569190263119
H 3.1785352617430145 -1.7527708259074855 -0.10851958407769628
H 1.8884357285758488 -2.7060186534948225 -0.8893336908821209
H 2.0619107686182723 -2.760412526289827 0.8550766705712722
H 2.612870172821426 0.5723194372713221 -0.21635209431553892
H -0.7949919693543 1.0703531155542352 1.6160572490945604
H -1.429571954223775 1.9147381912644927 0.1962188622120708
H -0.32757524246560693 -1.5220296322434617 1.4638374017616729
H -0.47643314416982274 -2.283681134137761 -0.11007011232179838
H -0.42855723357911163 0.03759351807991152 -2.033813594445742
H -2.1042525246546 0.580630843486757 -1.8462444497255692
H -1.7392728640405244 -1.152174177778985 -1.948749303780323
H -2.5758588595335365 -0.6221911809617087 1.6689832935276494
H -2.97951250256069 -1.5637574643932743 0.2191896447433719
H -3.3701327558878926 0.16432543696172758 0.2896804851163478
*
