  11
        -17.62757131
 C          2.0224749913        0.0384398552       -0.0004239770
 C          0.7413663117       -0.7863158142        0.0005415807
 C         -0.4919634766        0.0829363451        0.0000844950
 O         -0.4759373959        1.2916337412        0.0001732818
 O         -1.6608850123       -0.5630259530       -0.0003224154
 H          2.0588188586        0.6794300527        0.8766503503
 H          2.8904947464       -0.6138708179        0.0005620507
 H          2.0589737321        0.6770595662       -0.8792439406
 H          0.7077055756       -1.4261157171       -0.8842315353
 H          0.7080378654       -1.4243439175        0.8866096927
 H         -1.5774354991       -1.5341162354       -0.0003875972
  11
        -17.62650438
 C          1.8169083845       -0.4824096192        0.5069492955
 C          0.8326120912       -0.3441857803       -0.6604890743
 C         -0.4753369618        0.2084878144       -0.1509367958
 O         -0.7795418494        1.3781289101       -0.2198227451
 O         -1.3011511195       -0.6576597692        0.4317464785
 H          1.4294786703       -1.1457989471        1.2757020357
 H          2.7593560898       -0.8815606148        0.1443405909
 H          2.0011855603        0.4905793318        0.9558194116
 H          1.2323729855        0.3551084363       -1.3942310731
 H          0.6742772340       -1.3123315672       -1.1361476781
 H         -0.9769015055       -1.5768217898        0.4187525853
  11
        -17.62621590
 C          1.6761129572       -1.0988963838        0.0026085799
 C          1.0519199755        0.2916506087       -0.0036637877
 C         -0.4577493810        0.3475120025       -0.0004220997
 O         -1.0585211827        1.4018497048       -0.0005912637
 O         -1.1343607995       -0.7936895301        0.0018381662
 H          2.7580358364       -0.9987184670        0.0019829499
 H          1.3997204119       -1.6534990503        0.8966283438
 H          1.3998454319       -1.6617413103       -0.8862729663
 H          1.3802883699        0.8654358851        0.8659723022
 H          1.3762994774        0.8552583274       -0.8814124232
 H         -0.5587429719       -1.5820402960        0.0009130264
  11
        -17.62617983
 C          1.6867199397       -1.0677806787        0.1692100868
 C          1.0384544061        0.2565367449       -0.2198499542
 C         -0.4590156990        0.3413954107       -0.0411308561
 O         -1.0498534984        1.4006290313       -0.0738591899
 O         -1.1382183685       -0.7838872511        0.1416569240
 H          2.7659316635       -0.9667229111        0.0946047750
 H          1.4489463100       -1.3325626775        1.1969594254
 H          1.3904641890       -1.8731407799       -0.4989309142
 H          1.4643421081        1.0812634568        0.3542678249
 H          1.2323383925        0.4802422751       -1.2722527784
 H         -0.5737759593       -1.5800746658        0.1427242388
  11
        -17.62617976
 C          1.6860757609       -1.0704202641        0.1617982816
 C          1.0396236757        0.2595990697       -0.2101935136
 C         -0.4589568762        0.3418333891       -0.0394236249
 O         -1.0506003528        1.4007001639       -0.0705531669
 O         -1.1380962796       -0.7846992117        0.1354708957
 H          1.3908811229       -1.8660683661       -0.5183425704
 H          2.7655064635       -0.9689418670        0.0910360201
 H          1.4460955450       -1.3494755798        1.1852584369
 H          1.4618953608        1.0751604172        0.3795982322
 H          1.2400310337        0.5003805278       -1.2575608529
 H         -0.5732036766       -1.5805474184        0.1360077728
  11
        -17.62603476
 C          1.7436252237       -0.8622428898        0.4165725847
 C          0.9549218402        0.0297835274       -0.5425474395
 C         -0.4660934423        0.2994228959       -0.1090588209
 O         -0.9786518501        1.3950810673       -0.1827158307
 O         -1.1722009090       -0.7279621632        0.3508707353
 H          1.6891607092       -0.4750404772        1.4311515512
 H          1.3873702761       -1.8890246874        0.4097514381
 H          2.7865807649       -0.8742663422        0.1135586477
 H          1.4410768030        0.9993555781       -0.6526566657
 H          0.9097159948       -0.4322249384       -1.5322528052
 H         -0.6748171969       -1.5664939096        0.3619525862
