! wb97x-v def2-tzvp def2/J RIJCOSX DEFGRID2 scfconv7 GCP(DFT/TZ) printgap
%output
    printlevel normal
end
* xyz 0 1
C 1.201767944964711 1.2665043265950977 0.050568906646759795
C 0.4317635967824208 -9.446273191399749e-05 -0.3489391054065709
C 1.207372271218138 -1.2633446804612416 0.04977792509999314
C -0.8800038326486592 -0.002924783802251213 0.3712549711751691
O -1.9774558176363335 -0.0012806570598655818 -0.16317015730540113
H 2.1750844047654976 1.2755407769094855 -0.4495022201709336
H 1.3744382969141804 1.2894231215047238 1.1322357659354636
H 0.6581074604553556 2.1725715302798734 -0.23393948330444228
H 0.23466229316987136 6.076445975587087e-06 -1.4261660071745164
H 2.1806750908829104 -1.2679132622571556 -0.4503765937438976
H 0.6677226396019094 -2.171704588120589 -0.23507038059910834
H 1.3802671288603976 -1.286027928136428 1.1314174859371884
H -0.8025730906254521 -0.0048687889290576075 1.4808137406909012
*
