! pbe def2-sv(p) def2/J RI DEFGRID1 loosescf d4 GCP(DFT/SV(P)) printgap
%output
    printlevel normal
end
* xyz 0 1
C -2.3171089976 -0.1981153344 0.5672335768
C -1.2803128005 -0.5839996911 -0.4895536614
C 0.0085150783 0.1555020444 -0.2410811243
O 0.1391548396 1.3610667558 -0.2818087354
O 1.0039868815 -0.6737462733 0.0508181657
C 2.287374531 -0.1058017055 0.3272646902
H -1.9917996644 -0.5180726757 1.5537166953
H -2.4505303887 0.8808644273 0.5785699646
H -3.2684423028 -0.6699089346 0.3422730034
H -1.6459699221 -0.2970111476 -1.4763820925
H -1.0796075779 -1.6539039279 -0.4677601531
H 2.1863077148 0.7172749617 1.0356690403
H 2.730738937 0.2706043372 -0.5950938136
H 2.8830094608 -0.9123953099 0.7429877259
*
