! pbe def2-sv(p) def2/J RI DEFGRID1 loosescf d4 GCP(DFT/SV(P)) printgap
%output
    printlevel normal
end
* xyz 0 1
C -2.472367958 -0.815180735 0.0594695951
C -1.074511403 -0.4952030633 0.6034908906
H -1.0122383787 -0.7731865633 1.6682722523
C -0.7531848924 1.0115570054 0.494782152
H -1.6310706008 1.5191984646 0.0756363804
C 0.4492435735 1.2400574787 -0.4498596868
H 0.7776994368 2.2873183913 -0.3550923482
C 1.6297434834 0.3661301072 0.0091063855
H 2.3940930169 0.3601305573 -0.774393656
C 1.1721441604 -1.099862883 0.2089920224
H 1.2992648717 -1.3532527186 1.2859275002
O -0.1754480794 -1.295732257 -0.1416618404
O 1.9431265165 -1.9225289997 -0.58696175
O 2.2321111527 0.8904849341 1.1603536419
O 0.1466953584 0.9325011876 -1.7834395099
O -0.464745243 1.4892428612 1.7930066347
O -2.640650095 -0.3354768546 -1.2489048932
H -3.2297846556 -0.3251506333 0.6731551789
H -2.6176939659 -1.9012350217 0.0990909796
H 1.5259558183 -2.7969320205 -0.6480414189
H 1.5384155754 1.0514968891 1.8265227354
H -0.5259105816 1.5468429341 -2.1135928265
H -0.6213024964 2.4432608942 1.8398016451
H -1.9236949432 -0.6974992576 -1.7921124899
*
