! pbe def2-sv(p) def2/J RI DEFGRID1 loosescf d4 GCP(DFT/SV(P)) printgap
%output
    printlevel normal
end
* xyz 0 1
C -2.8834797001 0.9058798105 0.6905711683
O -1.7052931596 0.7588417155 -0.1066244678
C -1.0410409088 -0.3887228695 -0.0715358638
O -1.37859337 -1.3348404544 0.6116463368
C 0.137129382 -0.3925595701 -1.0284158742
C 1.1691046698 -1.4607779597 -0.6341990826
C 2.3085178867 -0.8589933669 0.1955882187
C 1.7713866224 0.2614650328 1.0788895414
C 1.3374585994 1.4510480203 0.2153644411
C 0.7920049958 0.9860422379 -1.1407602188
H -3.0589980527 -0.0038657542 1.2658710068
H -3.7175424181 1.0980664258 0.0180719355
H -2.7310607409 1.7542879468 1.3551529155
H -0.3038489305 -0.6568389026 -1.9966721286
H 0.654081378 -2.2291188042 -0.0534437425
H 1.5748122461 -1.9335359983 -1.5283129279
H 2.7636747759 -1.6388940505 0.8068262981
H 3.0822759571 -0.4557288101 -0.4593166415
H 0.9209892509 -0.1222605055 1.6483999833
H 2.5287037536 0.5796250476 1.7965272645
H 0.5766314785 2.0252819162 0.7460097597
H 2.1882996587 2.1124104789 0.0456978842
H 0.0753802367 1.711560833 -1.5238126876
H 1.6057974362 0.903688225 -1.8614844605
*
