! wb97x-v def2-tzvp def2/J RIJCOSX DEFGRID2 scfconv7 GCP(DFT/TZ) printgap
%output
    printlevel normal
end
* xyz 0 1
C 1.8242159680409258 0.005461027134982212 1.0310345902185658
C 1.0128382550105635 -0.3586302314380498 -0.19442132410964494
H 1.105389333454149 -1.4300173375795806 -0.4175168339843156
C -0.4748854498916101 -0.10109082405685521 0.030288473421270546
F -1.2034987795563308 -0.3825764699263105 -1.0800806225285469
F -0.9659391764649631 -0.8726206284141993 1.0306928328423357
F -0.7384304576697936 1.1874818912154994 0.3525032131799861
O 1.458124975300931 0.43505545177443605 -1.29167631310159
H 2.8717564895277823 -0.24421932403928084 0.8486515501672675
H 1.482750649167326 -0.5567624716737556 1.903396738775875
H 1.7473108219533093 1.0757228446787461 1.2419107283135424
H 1.1541461386022693 0.02354644304322129 -2.1122812109855116
*
