! pbe def2-sv(p) def2/J RI DEFGRID1 loosescf d4 GCP(DFT/SV(P)) printgap
%output
    printlevel normal
end
* xyz 0 1
C -2.3647649584 -0.9651184787 0.3985050375
C -1.0673872356 -0.2618778585 0.8225584191
H -1.239070173 0.1821319027 1.8118426913
C -0.6844342661 0.8575685953 -0.1607122516
H -0.7463044563 0.4801152339 -1.1878844807
C 0.7553507252 1.3007326334 0.1428598399
H 0.8371295649 1.576877127 1.2017798455
C 1.7313452858 0.1326501436 -0.0936402846
H 2.1029288362 0.1809637155 -1.1268656853
C 0.9992552469 -1.2270503289 0.0485945235
H 1.7068243771 -1.9733589602 0.4485320394
O -0.01473395 -1.2085648563 1.0070802074
O 0.5707515269 -1.6290493359 -1.2204569403
O 2.7825044476 0.2682112621 0.8283898986
O 1.1110542071 2.4584255249 -0.5632874753
O -1.5969047857 1.9210941406 -0.0948982401
O -2.1670716684 -1.6288272581 -0.8322003605
H -3.1395652504 -0.1963846242 0.3074697825
H -2.6385866427 -1.6843152484 1.1789585505
H -0.3475168567 -1.9607534817 -1.1645931082
H 3.5142376673 -0.3196290957 0.5925633224
H 0.9866342888 2.3168657261 -1.5132533797
H -1.4013146514 2.4774766989 0.6729751461
H -3.0034150259 -2.0141940625 -1.1275490149
*
