! pbe def2-sv(p) def2/J RI DEFGRID1 loosescf d4 GCP(DFT/SV(P)) printgap
%output
    printlevel normal
end
* xyz 0 1
C -3.1721173771 0.295480074 0.477528237
C -1.643849192 0.362915152 0.445437229
H -1.2816239085 0.3824836765 1.481527622
C -1.1284490127 1.6017961348 -0.2798940576
C 0.3941291599 1.6580750607 -0.218212896
C 1.0590387092 0.3739067076 -0.7739248474
H 1.6068569831 0.6279471775 -1.6866673253
C 0.0218437081 -0.6880110692 -1.1670351684
C -1.0711053305 -0.8989693871 -0.1607260423
O -1.4934282978 -2.0060919769 0.1225720096
C 2.0734420844 -0.135519111 0.2261438439
C 1.8249582443 -1.0893630167 1.1087318627
C 3.3976060803 0.5658201708 0.1674508933
H -3.5719500187 0.3390730066 -0.5331767203
H -3.4919076345 -0.6388390243 0.932763816
H -3.5758835055 1.125602005 1.0499045879
H -1.4696416721 1.591480249 -1.3161998892
H -1.5414570815 2.4933463142 0.1943743559
H 0.7464167221 2.5292107841 -0.7705343718
H 0.6894314488 1.7871542661 0.8254059451
H -0.4811497972 -0.3632385483 -2.0820531584
H 0.5113039583 -1.6405378885 -1.3765474047
H 2.569318691 -1.402833613 1.8214851325
H 0.8828697049 -1.6069557167 1.1639836575
H 4.0451454515 0.2452174414 0.9783187501
H 3.8909730147 0.3488427689 -0.7789595793
H 3.2579643295 1.6432951891 0.230169849
*
