! pbe def2-sv(p) def2/J RI DEFGRID1 loosescf d4 GCP(DFT/SV(P)) printgap
%output
    printlevel normal
end
* xyz 0 1
C -2.3577638006 -1.022634159 0.3594417774
C -1.0863905499 -0.2678349524 0.8060880481
H -1.3048837788 0.1655984605 1.7921314944
C -0.6854838329 0.8649277883 -0.146793016
H -0.6957199485 0.5234012007 -1.1873000923
C 0.7472773339 1.3022102408 0.1954801228
H 0.8083841104 1.5208488338 1.2758419509
C 1.716266132 0.1502753666 -0.1147024553
H 1.9999795667 0.2180756168 -1.1746180345
C 1.008820062 -1.2064774143 0.0745351433
H 1.740142004 -1.9163177392 0.4923878052
O -0.004560109 -1.1728756851 1.0392628072
O 0.5524899897 -1.6172915565 -1.174888249
O 2.8500459416 0.1714854689 0.7112361757
O 1.1284841179 2.4378115093 -0.5414457261
O -1.5759894623 1.9487988439 -0.0936437801
O -2.2354838335 -1.7091030609 -0.8603885687
H -3.1844444581 -0.3048360012 0.3273556529
H -2.5718557146 -1.7879135924 1.1085351531
H -0.0749743811 -2.3541708961 -1.0679488158
H 3.344949511 0.9876904901 0.5438475377
H 0.333570443 2.9664005234 -0.7227005106
H -1.6561402199 2.2675194104 0.8182878551
H -2.2560538978 -1.0806217311 -1.59483126
*
