! pbe def2-sv(p) def2/J RI DEFGRID1 loosescf d4 GCP(DFT/SV(P)) printgap
%output
    printlevel normal
end
* xyz 0 1
C -2.2661431447 -1.1158555014 -0.1162115485
C -0.88865572 -0.5664733522 0.2564874396
H -0.7635238977 -0.6011288302 1.3481737696
C -0.7245300563 0.8943543995 -0.2024448026
H -1.152687241 1.001424795 -1.2120478071
C 0.7671413173 1.2671610975 -0.3075471988
H 0.8593042621 2.2781946178 0.1099796648
C 1.6365805031 0.289313444 0.5061101642
H 2.6998938328 0.510597723 0.3226946252
C 1.4093953466 -1.1489070786 -0.0123158901
H 1.713147609 -1.8497758133 0.7820481114
O 0.0673197028 -1.3981716079 -0.3738753613
O 2.2044135233 -1.4267002905 -1.1091412893
O 1.3609014648 0.3134241176 1.8818217242
O 1.1486921009 1.2363864879 -1.6642532938
O -1.3323226482 1.7911671903 0.6912421535
O -3.2466659466 -0.2958343189 0.4763522161
H -2.3342166772 -2.148699951 0.2424513759
H -2.3537050693 -1.1147358005 -1.2097525712
H 1.8737795583 -0.9038947087 -1.8620228096
H 1.4980305367 1.2072640848 2.2297971665
H 1.9030988537 1.8246702818 -1.8090858901
H -2.2414582445 1.4863575345 0.849791163
H -4.1245431445 -0.6536083147 0.2826830641
*
