! r2scan-3c def2/J RI DEFGRID2 scfconv6 printgap
%output
    printlevel normal
end
%cpcm
    smd true
    smdsolvent "water"
end
* xyz 0 1
C -3.4223921522 0.5637920575 0.0793009537
C -1.9264429346 0.4843861949 0.1023545554
C -1.1395937987 1.5238774648 -0.1411895546
C 0.3568001326 1.4833602931 -0.1220923739
C 0.8704177008 0.0504275802 -0.2801584099
H 0.6147724449 -0.2899946595 -1.2901789861
C 0.129022652 -0.8395452649 0.7245801876
C -1.3684336031 -0.8907973993 0.4022818988
H -1.9074622749 -1.3151179695 1.2591778041
O -1.6586448164 -1.8011591077 -0.6525419423
C 2.3673461228 -0.065425614 -0.1279592184
C 3.1016504399 -0.649167692 -1.0632760305
C 2.9867744095 0.492277539 1.1175912429
H -3.7595545357 1.5121306011 -0.3292117686
H -3.8163377096 0.4560373366 1.0895502275
H -3.8245725025 -0.2518307726 -0.5196227326
H -1.5812000731 2.4903434286 -0.3458139462
H 0.7537047761 2.113398852 -0.9214581945
H 0.700617309 1.9022563348 0.8275852124
H 0.5290992355 -1.8552623627 0.7023440292
H 0.249762445 -0.4405574107 1.7319228031
H -1.2029205092 -1.5033752162 -1.4515339041
H 4.1688700966 -0.7558682809 -0.9647664775
H 2.6703155611 -1.0461635897 -1.9670189445
H 2.4455008624 0.1623164778 2.0010952582
H 4.0219559987 0.1732038793 1.2015793869
H 2.9675387742 1.580875531 1.0950869843
*
