  17
        -19.24637827
 C         -1.4681037959       -0.0006769287        0.2355391911
 C         -0.7292198221        1.2504020278       -0.2371441171
 C          0.7287653980        1.1993804699        0.2350853572
 N          1.4284104476        0.0006882962       -0.1987110073
 C          0.7299525326       -1.1987077586        0.2350022776
 C         -0.7280354321       -1.2510959098       -0.2370616542
 H         -2.4917661655       -0.0011697295       -0.1448542282
 H         -1.5135951360       -0.0006272169        1.3272249132
 H         -0.7533028322        1.2977670166       -1.3292856670
 H         -1.2123927722        2.1477554667        0.1516146824
 H          1.2803365652        2.0671001175       -0.1337517985
 H          0.7581044970        1.2145274425        1.3291427109
 H          1.4806037607        0.0007412027       -1.2140258904
 H          1.2823517124       -2.0658476029       -0.1340497721
 H          0.7594217946       -1.2140437264        1.3290414131
 H         -0.7521876428       -1.2985580342       -1.3292222233
 H         -1.2103192206       -2.1488909785        0.1518241376
  17
        -19.24398235
 C         -1.4655387160       -0.0008396984       -0.2411304407
 C         -0.7255628790        1.2445573929        0.2386363681
 C          0.7256189008        1.1996394589       -0.2343190245
 N          1.3623961834        0.0004771263        0.2840797226
 C          0.7265071529       -1.1987698207       -0.2349403335
 C         -0.7241697555       -1.2451939588        0.2392118434
 H         -1.5079369429       -0.0011771483       -1.3335813551
 H         -2.4890614899       -0.0011606483        0.1367074517
 H         -1.2068847139        2.1472311532       -0.1402802214
 H         -0.7362440043        1.2747666907        1.3286562034
 H          0.7448516093        1.2328504491       -1.3404363684
 H          1.2715914312        2.0675623613        0.1425058270
 H          2.3471027385        0.0010138373        0.0395982839
 H          0.7448179156       -1.2308455156       -1.3410568965
 H          1.2735317366       -2.0665132992        0.1404929575
 H         -1.2047896859       -2.1485903882       -0.1385602714
 H         -0.7339886783       -1.2745389986        1.3292876122
  17
        -19.23792248
 C         -1.3683028033       -0.0339574702       -0.4243536733
 C         -0.7703032421        1.3016516725        0.0352825632
 C          0.7322889212        1.1340823879        0.3511678597
 N          1.3426917540        0.0259213199       -0.3609480094
 C          0.7743218337       -1.2468994775        0.0671460227
 C         -0.7396649434       -1.1814996087        0.3620872308
 H         -1.1770412388       -0.1845123563       -1.4900004610
 H         -2.4501477648       -0.0257009963       -0.2850951464
 H         -0.9105323915        2.0502947734       -0.7464463870
 H         -1.2890220764        1.6524819644        0.9283345118
 H          1.2792393567        2.0449856549        0.0988181837
 H          0.8753483344        0.9416394221        1.4178185988
 H          1.1841571266        0.1557352034       -1.3552674195
 H          0.9812208801       -1.9834145123       -0.7111938028
 H          1.3108126086       -1.5564513834        0.9708361706
 H         -1.2106414349       -2.1285521609        0.0980419362
 H         -0.9067871115       -1.0094755004        1.4267937755
  17
        -19.23731164
 C         -1.3683795923       -0.0018570472        0.3894680279
 C         -0.7669338052        1.2553863371       -0.2388017634
 C          0.7809583047        1.1962659796       -0.1929139658
 N          1.3079650349        0.0022531210        0.4430217885
 C          0.7835958020       -1.2015426067       -0.1767418110
 C         -0.7637085936       -1.2505814173       -0.2516229909
 H         -2.4509532797       -0.0022094312        0.2525831934
 H         -1.1763811034       -0.0077286113        1.4655503043
 H         -1.1029660972        1.3272675282       -1.2742783213
 H         -1.1298639533        2.1375460056        0.2902168025
 H          1.1847796277        1.2143032456       -1.2095661040
 H          1.1840334791        2.0588178018        0.3407277802
 H          1.0638389464        0.0093710687        1.4282583292
 H          1.2063571068       -1.2453638969       -1.1849738789
 H          1.1701248957       -2.0548144491        0.3832960860
 H         -1.0823610251       -1.3000748603       -1.2939117306
 H         -1.1406239703       -2.1406743967        0.2536835005
