! pbe def2-sv(p) def2/J RI DEFGRID1 loosescf d4 GCP(DFT/SV(P)) printgap
%output
    printlevel normal
end
* xyz 0 1
C -2.2342221644 -1.1759764095 0.0174332369
C -0.8719505061 -0.5725229113 0.3751445353
H -0.8242436153 -0.401724995 1.4607877001
C -0.6467325364 0.7740966362 -0.3241560379
H -0.8219253162 0.6457555555 -1.4062223488
C 0.8044587691 1.2670532819 -0.1512723457
H 0.7607826972 2.1464203185 0.5018294514
C 1.7027379711 0.2121363455 0.5268852762
H 2.7507644084 0.4650230276 0.3051428026
C 1.4321835598 -1.1600802832 -0.1142295133
H 2.0098659333 -1.9512454459 0.3853209983
O 0.0802920774 -1.5555385361 -0.0088349044
O 1.861324511 -1.1808850125 -1.4377318249
O 1.4644210553 0.2367988383 1.9087563681
O 1.3023215236 1.5870223145 -1.4313892018
O -1.494091604 1.7710391107 0.1870621486
O -3.257847754 -0.3423234957 0.5094661051
H -2.2789161715 -2.1747205805 0.4648747844
H -2.2953085932 -1.2767135272 -1.0736421709
H 1.5512239054 -0.3814716654 -1.9027941296
H 2.1020867562 -0.3301398728 2.3668699486
H 2.0113494774 2.2420110424 -1.3660492514
H -2.3786198631 1.3863835958 0.3221427757
H -4.1174648571 -0.7533194206 0.3398817855
*
