! wb97x-v def2-tzvp def2/J RIJCOSX DEFGRID2 scfconv7 GCP(DFT/TZ) printgap
%output
    printlevel normal
end
%cpcm
    smd true
    smdsolvent "water"
end
* xyz 0 1
C -4.4150541698939865 0.0004986545400496603 0.0005327886073629185
C -3.7173616196722357 -0.45543392619765444 1.1170983920798738
C -2.3256814299096478 -0.45890614057966195 1.1181031043128384
C -1.624402374600088 -0.0005254971339984055 0.0002820410392753996
C -2.325574206579579 0.45824750307472806 -1.1174556398510485
C -3.717245355346146 0.45580584643218036 -1.1162098654688164
C -0.1416200166304376 -0.0004938733647522023 0.00020200078733499985
C 0.6041250685744393 1.1736226837903945 0.16225513781097514
C 1.992842829662145 1.2032204290611699 0.16514275851488955
C 2.6630245733259903 -1.8913505411447313e-06 -0.0004791661338124456
C 1.9931787938371475 -1.2034698906757706 -0.16566846049830758
C 0.6044406321327066 -1.1743600507238396 -0.16208396712416376
Cl -0.23490319397167392 -2.695009088057567 -0.4004247516140384
Cl 4.414925648168548 0.0003491205980073767 -0.0010529362845994078
Cl -0.23559707811983974 2.6939810696133546 0.4011833681640862
H -5.500493485906207 0.0009966444702529092 0.0006713272110913149
H -4.256782423669226 -0.8098942983556137 1.989988152693289
H -1.7788714051690122 -0.8149926873956634 1.9861016666954936
H -1.7786457585684041 0.8139835938693526 -1.9855221864642962
H -4.256558697754823 0.8107055848842838 -1.9889907525881265
H 2.530186849883138 2.1337359126507796 0.2982116016344169
H 2.5307962423217916 -2.133792302020871 -0.29898700258055927
*
