! pbe def2-sv(p) def2/J RI DEFGRID1 loosescf d4 GCP(DFT/SV(P)) printgap
%output
    printlevel normal
end
* xyz 0 1
C -1.812653772 -1.0546403999 -0.6731321626
C -1.0385764106 -0.4907265529 0.5281183277
H -1.6948067659 -0.5619072834 1.403963802
C -0.7062164063 0.997238972 0.342540965
H -1.5492239221 1.444287392 -0.1987577917
C 0.5907537765 1.2357544382 -0.4698212452
H 0.8756246332 2.2893548712 -0.3425054201
C 1.7160566624 0.3621934154 0.1045711614
H 2.5963460958 0.4250966217 -0.5447410529
C 1.263237376 -1.1119777124 0.1424231149
H 2.0096762275 -1.6851373078 0.7108180017
O 0.0803379348 -1.2974393232 0.8758950014
O 1.1609284861 -1.5710817928 -1.1748175704
O 2.1267081663 0.7921494674 1.3732551226
O 0.4100209962 1.0428280202 -1.8499355244
O -0.5762514526 1.5624150497 1.6334465029
O -3.07555664 -0.4280262389 -0.6947414087
H -1.9155868265 -2.1372620495 -0.5254861969
H -1.2698983093 -0.8617589351 -1.6038562021
H 1.082196717 -2.5367169357 -1.1928446958
H 1.3395907578 0.8752949882 1.9419420358
H 0.6370291021 0.1247237732 -2.0713813238
H -0.682880314 2.522589131 1.5856479125
H -3.5813340546 -0.7586541562 -1.4503868756
*
