! wb97x-v def2-tzvp def2/J RIJCOSX DEFGRID2 scfconv7 GCP(DFT/TZ) printgap
%output
    printlevel normal
end
%cpcm
    smd true
    smdsolvent "water"
end
* xyz 0 1
C -0.7635595046039546 -1.7324983990028362 0.00029967497681326725
C 0.5589595919255826 -1.316823802567333 0.00031468345487149844
C 0.8401134875625336 0.05644616290613401 -2.5263280830408036e-05
C -0.19213266856457112 0.9986972227438081 -2.3207424858655106e-05
C -1.5147912028213908 0.5644281726323485 1.9812517658308433e-05
C -1.802137621147959 -0.8016254450240791 0.000151000567699125
O -2.4973580367764874 1.5207562755699877 -0.0001229564048725352
C 2.2212376326159826 0.5496677675739264 -0.001303609517169146
O 3.215052044612369 -0.16743741505012133 -0.00035020190960193643
H -1.0030767163481604 -2.79083705210209 0.00030716014420310427
H 1.3720407237034895 -2.034102241253817 0.0002642980864589555
H 0.031894442020849886 2.0616228543708264 -0.0001530341571956289
H -2.8373687780247216 -1.1316012534473752 0.00014291853821122777
H -3.3640802127464364 1.0897435413273893 -8.308122065675685e-05
H 2.3262657702084 1.6525634643300386 0.0012487281765648961
*
