! wb97x-v def2-tzvp def2/J RIJCOSX DEFGRID2 scfconv7 GCP(DFT/TZ) printgap
%output
    printlevel normal
end
%cpcm
    smd true
    smdsolvent "water"
end
* xyz 0 1
C 1.338020681838336 1.3292863599376419 1.2521060216737759e-05
C -0.028954424450867898 1.119098693102973 4.4885940114443815e-06
C -0.49419791732947665 -0.1998630376785774 0.00014960405858891696
C 0.4373628340245669 -1.2402273140181566 6.732491319564986e-05
N 1.7609721112404038 -1.0503515503168215 -3.610371581938663e-05
C 2.185814275320305 0.22263372975637513 -2.7002398269557467e-05
C -1.9232291861172324 -0.5258202298202099 0.0006650047525196499
O -2.81849334870644 0.3093911116984224 -8.893833627308375e-05
H 1.7549523786626877 2.3300151344770894 5.84422176590502e-05
H -0.731216089365256 1.9464067283294664 0.0001250224465266157
H 0.09001988373491232 -2.2720623672193376 3.287845050824353e-05
H 3.2633250318014086 0.3682983389485408 -6.866001422749316e-05
H -2.161576604703615 -1.6067048485372637 -0.000586023060972236
*
