! pbe def2-sv(p) def2/J RI DEFGRID1 loosescf d4 GCP(DFT/SV(P)) printgap
%output
    printlevel normal
end
* xyz 0 1
C -2.5200659773 -1.0097703755 0.2995357598
C -1.0822936683 -0.5282250212 0.5740250909
H -0.9407156968 -0.4788280099 1.6650491101
C -0.8071078464 0.861592121 -0.0171628047
H -0.9427557299 0.8132753417 -1.1089630894
C 0.6521888375 1.2461291948 0.2518515895
H 0.8022336562 1.3358026325 1.3416580282
C 1.577894633 0.1503073084 -0.2996832102
H 1.4534548248 0.1008392668 -1.3875901757
C 1.1694395144 -1.2038071679 0.3174404929
H 1.3173303771 -1.156222425 1.4124561714
O -0.1831811183 -1.4760939562 0.0293671442
O 1.9385086025 -2.257378469 -0.1254974431
O 2.9285654079 0.4670310549 -0.0822803076
O 0.8965331877 2.4889917085 -0.3620905429
O -1.7053177579 1.7764909224 0.5546069169
O -2.9958825212 -0.7105263003 -0.9852199634
H -3.173635592 -0.5823028868 1.0655227738
H -2.5212931032 -2.0984738209 0.380885132
H 1.6936657475 -2.4811634331 -1.0370422332
H 3.1939239737 0.2228164345 0.8160131719
H 1.8549054348 2.6127956706 -0.4402159931
H -1.4213239808 2.6707570238 0.3097100462
H -3.2372521611 0.2258838318 -1.0204838653
*
