! pbe def2-sv(p) def2/J RI DEFGRID1 loosescf d4 GCP(DFT/SV(P)) printgap
%output
    printlevel normal
end
* xyz 0 1
C -1.9770857292 -0.2375251165 -1.0264301243
C -1.3538359136 -0.1890422271 0.378523582
H -2.154045613 -0.3880680447 1.1047270208
C -0.7182675752 1.1718926658 0.6845883983
H -1.4329911831 1.957213872 0.4049832546
C 0.5488382873 1.4153422196 -0.1526532341
H 1.2061701527 2.0618834666 0.4464573209
C 1.3233173699 0.1129892507 -0.4169983481
H 1.0564683086 -0.2776942629 -1.4115354366
C 0.9325125638 -0.9521378621 0.6143229698
H 1.1756056422 -0.5752954072 1.6258004997
O -0.4379057218 -1.2736286318 0.5400112417
O 1.6531560496 -2.0999215472 0.3252890422
O 2.6971885039 0.3954168778 -0.3571135923
O 0.163433997 2.0512026461 -1.3442306949
O -0.3578615318 1.2826097209 2.0416068405
O -2.670946286 -1.4412647068 -1.2352233795
H -1.2017210243 -0.0979459976 -1.7878883423
H -2.7109914139 0.5632323493 -1.1274797529
H 1.355797114 -2.8258975242 0.8943658889
H 3.1889834076 -0.4390604732 -0.40011281
H 0.9537493252 2.3584238881 -1.8118990496
H -1.1540374463 1.3227026355 2.5920312265
H -2.0733139311 -2.1752648849 -1.0280934611
*
