! wb97x-v def2-tzvp def2/J RIJCOSX DEFGRID2 scfconv7 GCP(DFT/TZ) printgap
%output
    printlevel normal
end
%cpcm
    smd true
    smdsolvent "water"
end
* xyz 0 1
C -2.536798026307528 -0.9785721096086778 0.3662936700029061
C -1.1246993400015841 -0.4794102131819723 0.6050830429361536
H -0.957664668736669 -0.42810281332838773 1.693941668243924
C -0.8415116354439944 0.8954465978566969 -0.010727558674264833
H -1.0396009690042844 0.8609840874578676 -1.0903138287371423
C 0.6170208707017639 1.258458551382615 0.22103486859597396
H 0.78382714200075 1.3729669136546478 1.3045455848780534
C 1.5333812816234176 0.16155898654136652 -0.3023644352697558
H 1.4193474332284013 0.08593453262134837 -1.3968667026466415
C 1.1427058758175432 -1.1813762462819963 0.3100205173394551
H 1.2964224221578569 -1.1711350820891369 1.3993487776852789
O -0.2326153572279169 -1.4483170782018953 0.019705850635656587
O 1.9029654113922825 -2.2469552014294933 -0.19253928849044202
O 2.895740030978229 0.4127344095591199 0.04579268314395813
O 0.9809672379672136 2.4656956842092423 -0.45866253909511434
O -1.6317655054297469 1.9142279699212776 0.6144377790567102
O -2.887360722729271 -1.0329148144413902 -1.021457887969548
H -3.244097626534316 -0.2943807802489444 0.8439121315841432
H -2.6470629436862128 -1.9661204218140471 0.8343228625298512
H 1.9197876306874613 -2.1799967847732358 -1.1590107690152203
H 3.1216051054801133 1.2862841810209735 -0.3016778704701896
H 0.46997681933072255 3.183572624162261 -0.060894054053415275
H -2.50585585405919 1.9098337294629582 0.20415747794766342
H -2.2915358483073787 -1.6644928365708382 -1.4456672700384945
*
