! pbe def2-sv(p) def2/J RI DEFGRID1 loosescf d4 GCP(DFT/SV(P)) printgap
%output
    printlevel normal
end
* xyz 0 1
C -2.2368267948 -0.9716465823 -0.3859013926
C -1.1882321097 -0.184963139 0.424785986
H -1.6578839583 0.236716078 1.3226751883
C -0.6005684277 0.9743555996 -0.3980550857
H -0.4738129485 0.6698331972 -1.4460183669
C 0.7871211848 1.3316421111 0.1550308919
H 0.7058272516 1.536745825 1.233106632
C 1.7388346821 0.1479063149 -0.036407137
H 2.0999948221 0.1798931449 -1.0712749262
C 0.982025347 -1.1895345136 0.1608902474
H 1.6105291057 -1.854932922 0.7713834341
O -0.1782494256 -1.0524069319 0.9353180213
O 0.7300354189 -1.7340046037 -1.0973947846
O 2.7914584152 0.2786066254 0.8839811267
O 1.3246872076 2.4398881889 -0.5163828247
O -1.3923092473 2.1347825989 -0.3042512498
O -2.6887983359 -2.1276105083 0.2705119637
H -1.7955318924 -1.3168217425 -1.3233405475
H -3.0780449782 -0.3026331244 -0.6118767934
H 0.3759063247 -2.6323255517 -1.0019855472
H 3.5875906336 -0.1564938996 0.5484687806
H 0.6708662901 3.1561514643 -0.478610693
H -2.1725282139 2.0586393673 -0.8694445457
H -3.0194397755 -1.8946698432 1.1493016773
*
