! wb97x-v def2-tzvp def2/J RIJCOSX DEFGRID2 scfconv7 GCP(DFT/TZ) printgap
%output
    printlevel normal
end
* xyz 0 1
C -1.8950824504628245 -0.01141618498826826 0.30649646472987574
C -1.1817838350219592 -1.2664443393871778 -0.20044461410870362
C 0.3012807735914141 -1.2521843201683656 0.18196489835917434
C 0.9767091657374399 0.007066102756533008 -0.33647206807578195
C 0.2781882196197386 1.2586097627286086 0.18235445691965707
C -1.203725493456969 1.253590348928944 -0.20544105897409515
O 2.3601423787411364 -0.03617795045254863 0.08515561467036571
H -1.883474604642317 -0.008745597555775983 1.4052720984705638
H -2.9461014025726304 -0.021921067466908157 -0.004270447385355838
H -1.658653030926284 -2.167437380678682 0.20082527969283726
H -1.2735524292438576 -1.3166953306590075 -1.294071629140449
H 0.40107257260536505 -1.2755450730000462 1.2760721768830645
H 0.8125275252099995 -2.1363628713611096 -0.21633620607305473
H 0.937968680350885 0.0058359409334821696 -1.4380821127209138
H 0.3747905481252159 1.2810339513172082 1.2767186640180583
H 0.7792332054361714 2.151127662223759 -0.21359172226712042
H -1.6957661550016676 2.1487747804581896 0.19073304905478144
H -1.2931705305278351 1.2975875839527582 -1.2995839419503046
H 2.7792126541069053 0.7767905040028081 -0.2264911208417918
*
