  10
        -14.63442989
 C         -1.3631925946       -0.8758612355        0.2335817658
 S          0.0001623271        0.1577241197       -0.4348444298
 O          0.0016306975        1.4033339505        0.3887423882
 C          1.3612110811       -0.8788930576        0.2335599750
 H         -1.2607055934       -0.9645437935        1.3088313467
 H         -1.3151839830       -1.8420857249       -0.2515496293
 H         -2.2965014323       -0.3796243517       -0.0092048250
 H          1.2600906963       -0.9644912245        1.3092191156
 H          2.2958431711       -0.3863974887       -0.0119641811
 H          1.3090204561       -1.8461771674       -0.2491458709
  10
        -14.63241733
 C         -1.3822967984       -0.8727752835        0.2330250514
 S          0.0028869070        0.1532599749       -0.4339668160
 O          0.0027850645        1.3998367843        0.3891658785
 C          1.3747634718       -0.8708096382        0.2316376315
 H         -2.0258874784       -1.1295718740       -0.6000278783
 H         -1.9214593002       -0.2577438000        0.9446480956
 H         -1.0076075611       -1.7692717308        0.7086185545
 H          1.3300707244       -1.8364882751       -0.2557465407
 H          1.2738984777       -0.9570635069        1.3073661628
 H          2.3047059922       -0.3687501268       -0.0137727234
