! wb97x-v def2-tzvp def2/J RIJCOSX DEFGRID2 scfconv7 GCP(DFT/TZ) printgap
%output
    printlevel normal
end
* xyz 0 1
C -3.1871581700211182 0.0023451037044092014 0.8438166145224018
C -2.4684074652027754 -0.0014039497198818861 -0.5105031130833138
C -0.9709612151391814 -0.0010569028128751305 -0.3476295397377519
C -0.2575929435900277 -1.19810074990304 -0.23605709540762496
C 1.1183321410514795 -1.19764148949263 -0.022904395073695516
C 1.8315953741028606 0.00014685524483753728 0.08596834838055238
C 1.1175086091579451 1.197458204905835 -0.02474712967490994
C -0.258243044695463 1.196721215094329 -0.23791136743439872
C 3.3216682524544434 0.0012659308442541752 0.2816847998335615
H -2.9145735943505233 0.8891951240365485 1.425857402962719
H -2.9158718110765927 -0.8821592011694248 1.4300022144000706
H -4.273834760973932 0.002854687508875416 0.7103956092155845
H -2.774692029071021 0.8797870862959989 -1.0853084004450142
H -2.7748298147332404 -0.8856415256802402 -1.0805193119424372
H -0.7880965043383349 -2.1440361184477723 -0.31511483377894856
H 1.6487636908472647 -2.143017411583515 0.05924590316458453
H 1.6473908843274037 2.1432905445718813 0.055895621825336944
H -0.7893814908684659 2.142174468264533 -0.31848359743564914
H 3.6522683328074956 -0.8935494534539326 0.8164095746716762
H 3.842668895185035 0.016565822082094412 -0.6833935837812969
H 3.647691861113268 0.8824905611007262 0.841369000446828
*
