! pbe def2-sv(p) def2/J RI DEFGRID1 loosescf d4 GCP(DFT/SV(P)) printgap
%output
    printlevel normal
end
* xyz 0 1
C -2.5400962814 -0.7004154676 -0.3854916975
C -1.162875097 -0.336666102 0.1652578153
H -1.2245412921 -0.3167679937 1.2658651788
C -0.6971115766 1.0438998608 -0.3458501226
H -0.6726637584 1.0309874628 -1.4407474626
C 0.7211536497 1.3212725084 0.1713657025
H 0.6929367714 1.4131390108 1.2713244955
C 1.6508820628 0.1513430533 -0.1739783165
H 1.7633880103 0.0912408383 -1.2666017343
C 1.0339207234 -1.1722739215 0.3054332845
H 0.9743943096 -1.1565144429 1.4159685995
O -0.2540108557 -1.3463275449 -0.2286320692
O 1.8377274139 -2.2059355915 -0.1343180997
O 2.887624099 0.3967140099 0.4453509715
O 1.1835875833 2.5191464013 -0.3958148402
O -1.6041914192 2.0533541273 -0.0034589984
O -3.1424816556 -1.6329847841 0.4823502342
H -2.402371524 -1.122459032 -1.3869178971
H -3.1347551158 0.2188949181 -0.4477887907
H 1.3530351933 -3.0436206536 -0.0697063082
H 3.4829841429 -0.3460750853 0.2664976503
H 2.1134079806 2.6357384658 -0.1473330887
H -1.5225792933 2.2707134979 0.9369739784
H -3.9940103807 -1.9063449912 0.112952552
*
