  17
        -22.49077878
 C         -2.7364182537       -0.1785634385       -0.6881518614
 C         -1.9311075974        0.1997788363        0.5567871215
 C         -0.4579605178        0.0790347555        0.2965236325
 C          0.1601069843       -1.1687592838        0.2332908518
 C          1.5144709971       -1.2351939536       -0.0376453678
 C          2.2135783647       -0.0534549050       -0.2365345392
 C          1.5126914729        1.1376827244       -0.1498517162
 N          0.2162356183        1.2082799862        0.1085472283
 H         -2.5256418874       -1.2034215689       -0.9850159945
 H         -2.4797806354        0.4790728709       -1.5149694784
 H         -3.8002275495       -0.0858500020       -0.4870412394
 H         -2.2088631290       -0.4586900723        1.3819050420
 H         -2.1511071028        1.2299457252        0.8349486746
 H         -0.4169707982       -2.0653414015        0.3993047300
 H          2.0187776512       -2.1888219697       -0.0911924658
 H          3.2704138362       -0.0559869916       -0.4495478577
 H          2.0069487639        2.0900420398       -0.2920073622
  17
        -22.48927801
 C         -2.7429404033        0.7545395210       -0.3681128356
 C         -1.9568567460       -0.3620734168        0.3066233968
 C         -0.4686647732       -0.2208489437        0.1453778730
 C          0.3690224633       -1.3165309971        0.3592724552
 C          1.7352233681       -1.1569803584        0.2235362162
 C          2.2301800737        0.0920954507       -0.1241863767
 C          1.3205043301        1.1177497842       -0.3151616552
 N          0.0114716579        0.9719690262       -0.1845944089
 H         -2.4456535016        1.7173074799        0.0350859912
 H         -3.8082075314        0.6132234731       -0.2055976282
 H         -2.5481152014        0.7603933411       -1.4371288828
 H         -2.2622427097       -1.3321303749       -0.0920205535
 H         -2.1787411021       -0.3658778770        1.3780666101
 H         -0.0533519049       -2.2730733875        0.6268618277
 H          2.4045463077       -1.9895717511        0.3829974636
 H          3.2878034608        0.2633126480       -0.2440379178
 H          1.6473683011        2.1128372243       -0.5882205772
