! r2scan-3c def2/J RI DEFGRID2 scfconv6 printgap
%output
    printlevel normal
end
%cpcm
    smd true
    smdsolvent "water"
end
* xyz 0 1
C -1.465538716 -0.0008396984 -0.2411304407
C -0.725562879 1.2445573929 0.2386363681
C 0.7256189008 1.1996394589 -0.2343190245
N 1.3623961834 0.0004771263 0.2840797226
C 0.7265071529 -1.1987698207 -0.2349403335
C -0.7241697555 -1.2451939588 0.2392118434
H -1.5079369429 -0.0011771483 -1.3335813551
H -2.4890614899 -0.0011606483 0.1367074517
H -1.2068847139 2.1472311532 -0.1402802214
H -0.7362440043 1.2747666907 1.3286562034
H 0.7448516093 1.2328504491 -1.3404363684
H 1.2715914312 2.0675623613 0.142505827
H 2.3471027385 0.0010138373 0.0395982839
H 0.7448179156 -1.2308455156 -1.3410568965
H 1.2735317366 -2.0665132992 0.1404929575
H -1.2047896859 -2.1485903882 -0.1385602714
H -0.7339886783 -1.2745389986 1.3292876122
*
