! wb97x-v def2-tzvp def2/J RIJCOSX DEFGRID2 scfconv7 GCP(DFT/TZ) printgap
%output
    printlevel normal
end
%cpcm
    smd true
    smdsolvent "water"
end
* xyz 0 1
C -2.485551308938741 -0.05155778147940109 0.3446170474892517
C -1.2386472214393884 -0.6661211334821976 -0.271180063495527
C 0.027627992579967706 0.026678420453850618 0.14332565668883973
O 0.09416868932643184 1.0696169389676027 0.7714200660249125
O 1.1191271460141359 -0.6442282217909298 -0.282150805705654
C 2.398342538368533 -0.040904699821791735 0.04033367582874164
H -2.600584042853664 0.994261467431747 0.04739517012063383
H -3.3719483159367907 -0.5989845619124242 0.013666807674738025
H -2.446689901017766 -0.09381274747954278 1.4368526534612938
H -1.277774336400937 -0.6257837378972514 -1.3672814812785055
H -1.141523160811146 -1.7264778246248143 -0.014193524100817416
H 2.510860826271033 0.05139432978048617 1.123008773265356
H 2.4827715247843694 0.9409108855388315 -0.4316778501804359
H 3.147961609268647 -0.7212795636559282 -0.3619546436000862
*
