! r2scan-3c def2/J RI DEFGRID2 scfconv6 printgap
%output
    printlevel normal
end
%cpcm
    smd true
    smdsolvent "water"
end
* xyz 0 1
C -2.5546237966 -0.6609156624 -0.3570201193
C -1.1709420989 -0.3101453685 0.2045642931
H -1.2195331075 -0.2497350991 1.3043259978
C -0.6930973503 1.0507685587 -0.3223719167
H -0.6842705193 1.0258855412 -1.4229301691
C 0.7386791529 1.3204625094 0.1594617753
H 0.7330912556 1.429957364 1.2562022078
C 1.6483589442 0.1427639645 -0.1990481195
H 1.7217692489 0.0607605155 -1.2939105197
C 1.0279326746 -1.162005901 0.3270846468
H 0.9977110391 -1.1172645679 1.4381649664
O -0.2745699263 -1.3371738402 -0.1702347996
O 1.808186818 -2.2171902545 -0.1051891221
O 2.9085538311 0.382863204 0.3718361275
O 1.1711986542 2.5162506577 -0.440134885
O -1.5781618485 2.0352937377 0.1411107515
O -3.1700641585 -1.7334881297 0.3044884793
H -2.4342487937 -0.9785907436 -1.3941714534
H -3.1729219979 0.2424240042 -0.3172543705
H 1.299793085 -3.0410005546 -0.0434765908
H 3.482748711 -0.3782863759 0.2009595534
H 2.1054307367 2.6506349284 -0.2221148371
H -1.2208875398 2.9030130723 -0.104233211
H -3.3811045093 -1.4766853575 1.2136286323
*
