! r2scan-3c def2/J RI DEFGRID2 scfconv6 printgap
%output
    printlevel normal
end
%cpcm
    smd true
    smdsolvent "water"
end
* xyz 0 1
C -3.6476141975 0.0320332292 -0.0539200627
C -2.1537651893 0.0136103038 -0.0041701185
C -1.4365636751 1.1879875597 0.2063680594
C -0.0562193895 1.1920129136 0.2160481864
C 0.6521951354 0.0050625016 0.0268816097
C -0.0675619271 -1.1785638252 -0.1539057974
C -1.446148846 -1.171527164 -0.1814284569
C 2.1269749083 -0.0778651655 0.0329514062
O 2.692870217 -1.1168048444 0.3494652329
C 2.9178706829 1.1208127362 -0.4122734351
H -3.9758648866 0.3027693589 -1.0571587259
H -4.0562028679 -0.9462701801 0.1835954522
H -4.0484199695 0.7670169074 0.6392131376
H -1.9714665594 2.1124571765 0.365533185
H 0.4639212136 2.1166782973 0.410071979
H 0.4847233303 -2.0981465834 -0.2835015464
H -1.9820610975 -2.096002562 -0.3369304141
H 2.314117908 2.0132712831 -0.5140740485
H 3.3562178075 0.8784300159 -1.3796468966
H 3.7397710915 1.2886108122 0.2799791278
*
