! pbe def2-sv(p) def2/J RI DEFGRID1 loosescf d4 GCP(DFT/SV(P)) printgap
%output
    printlevel normal
end
* xyz 0 1
C -2.5256095914 -0.9554559204 0.3749290273
C -1.0971908905 -0.453089982 0.6340100207
H -0.9379371132 -0.3499773553 1.7182080208
C -0.8327813043 0.9119763948 -0.0339785529
H -1.024577005 0.8113747225 -1.1116977935
C 0.6373103637 1.2893313111 0.1813262187
H 0.7957885642 1.4680006248 1.2514735241
C 1.5728607142 0.1563070759 -0.2765310749
H 1.5256199484 0.0526032098 -1.3727011668
C 1.1443829738 -1.1875039519 0.3268511579
H 1.3441904123 -1.1532477172 1.4174404606
O -0.2257840884 -1.437790971 0.107911
O 1.8537754206 -2.1925750007 -0.2919481912
O 2.8903961607 0.4121663309 0.1325095362
O 0.9978795446 2.4939509674 -0.4458119418
O -1.6269989683 1.926193285 0.5286317276
O -2.8362942014 -0.9996313282 -0.99323809
H -3.2405211859 -0.2748661687 0.8386370202
H -2.6279664755 -1.9459665981 0.8321867883
H 1.5562337959 -3.0567825557 0.0349019642
H 3.1022953471 1.3332887783 -0.0916895536
H 0.6828831119 2.4997955982 -1.3617883694
H -2.5184391641 1.8886176662 0.1549138929
H -2.2516827286 -1.6429637178 -1.4189194723
*
