! pbe def2-sv(p) def2/J RI DEFGRID1 loosescf d4 GCP(DFT/SV(P)) printgap
%output
    printlevel normal
end
* xyz 0 1
C -2.4858138866 -0.7972158503 0.0009078735
C -1.1037064625 -0.5174555065 0.6025651021
H -1.0876715664 -0.8411606624 1.6561722912
C -0.7502938232 0.9918674046 0.5632371678
H -1.6360101293 1.5423104953 0.2244906255
C 0.4066751379 1.2469300115 -0.419830293
H 0.7342203867 2.2905081896 -0.2906016074
C 1.6082118216 0.3560433193 -0.0611582575
H 2.2681669898 0.3219301178 -0.9361900825
C 1.1470505131 -1.0933132599 0.2287708203
H 1.2400664886 -1.2720230004 1.324797289
O -0.1885348846 -1.3072019129 -0.1415708826
O 1.9458345744 -1.9673332423 -0.4836037987
O 2.2444729474 0.9245700858 1.0573093346
O 0.0579454799 0.9907150826 -1.7531395631
O -0.4513542525 1.4947724414 1.8422251587
O -2.611080495 -0.2703922381 -1.2939582338
H -3.25402368 -0.3192497303 0.6105133013
H -2.6471651515 -1.8824337683 -0.0050201539
H 1.4970747335 -2.8237456857 -0.5627945245
H 3.1360020294 0.5615017973 1.1547393587
H -0.6693719932 1.5757403538 -2.0123805975
H 0.4937672355 1.3643893592 2.0278903828
H -1.8693390068 -0.6035827543 -1.8230521985
*
