! pbe def2-sv(p) def2/J RI DEFGRID1 loosescf d4 GCP(DFT/SV(P)) printgap
%output
    printlevel normal
end
* xyz 0 1
C -2.1030157326 -0.8903539797 -0.38313538
C -1.2259325126 -0.3393096662 0.757509363
H -1.8302130076 -0.3712112895 1.6714139825
C -0.7967063494 1.1246440008 0.5746731868
H -1.6393553605 1.6730262036 0.1223744944
C 0.4103108962 1.2979453353 -0.3678798972
H 0.8889077324 2.2580344716 -0.1307499648
C 1.5143746961 0.239852752 -0.137907728
H 2.0438709597 0.1197324281 -1.0951945168
C 1.0049331655 -1.1610291609 0.2640050556
H 1.7757234049 -1.6283690327 0.8943398185
O -0.1297124327 -1.1885221036 1.0813560119
O 0.8242884207 -1.9202925791 -0.9063896937
O 2.3676054539 0.7675857839 0.8475144316
O 0.0261197033 1.4014084622 -1.710352927
O -0.5405135766 1.6163434039 1.8697192779
O -1.5394696475 -0.8198079222 -1.6720139279
H -3.0224166564 -0.3035539568 -0.4233725741
H -2.356161734 -1.9282670539 -0.1376006797
H 0.7513621249 -2.8611944416 -0.6816564304
H 3.1725796354 0.2352684921 0.9208851451
H -0.5988919847 0.6743847736 -1.9287365471
H -0.2189328557 2.5276587117 1.8213866637
H -0.7195185047 -1.3594018636 -1.680554394
*
