  15
        -22.90884059
 C         -2.2262709664        0.9241388053        0.0004081313
 O         -0.8110602357        0.7386563004       -0.0006167662
 C         -0.3596311582       -0.5151354967        0.0000019297
 O         -1.1012875154       -1.4820456166       -0.0001273325
 C          1.1104920706       -0.6065507671       -0.0004611965
 C          1.9237164335        0.4319108532       -0.7413262793
 C          1.9234811640        0.4309442553        0.7420508523
 H         -2.3800269461        1.9976599622       -0.0472829111
 H         -2.6573909078        0.5064816421        0.9112244151
 H         -2.6705402711        0.4241965716       -0.8613163241
 H          1.4561826302       -1.6311781733       -0.0010266936
 H          2.7980085419        0.0806899197       -1.2654201443
 H          1.3748077215        1.2085081980       -1.2495916280
 H          2.7976340926        0.0791362453        1.2659163346
 H          1.3742182205        1.2067096369        1.2512835417
  15
        -22.90879592
 C         -2.6122213128        0.5138506105       -0.0005742775
 O         -1.2382907237        0.9089572966       -0.0021488552
 C         -0.3234122324       -0.0641606551       -0.0000929849
 O         -0.6143099722       -1.2445757538        0.0028991328
 C          1.0451029647        0.4834386513       -0.0017953414
 C          2.1143433397       -0.2846266419        0.7425262700
 C          2.1145122825       -0.2890620793       -0.7410191001
 H         -3.1815953233        1.4376858593       -0.0042160175
 H         -2.8288953208       -0.0779212510        0.8896901458
 H         -2.8289613513       -0.0850038432       -0.8860702848
 H          1.0778435008        1.5631078989       -0.0050186355
 H          2.8569290769        0.2932098416        1.2680766806
 H          1.7952322758       -1.1825307060        1.2491962171
 H          2.8572201784        0.2856714071       -1.2698854046
 H          1.7954765695       -1.1899534035       -1.2422970699
  15
        -22.90875040
 C         -2.2250787395        0.9536812126        0.0001610274
 O         -0.8140685602        0.7282705404        0.0006933306
 C         -0.3621355130       -0.5238151601       -0.0003938178
 O         -1.0901453576       -1.5015185250       -0.0008140690
 C          1.1094168250       -0.6055414352        0.0003020979
 C          1.9195662896        0.4342858616       -0.7416744494
 C          1.9192837446        0.4349271242        0.7417414861
 H         -2.7525260355        0.0002321459        0.0484116706
 H         -2.4799660116        1.4822156451       -0.9169696998
 H         -2.4612895819        1.5658954367        0.8684924496
 H          1.4593890715       -1.6287154523        0.0005800511
 H          2.7948142403        0.0850070896       -1.2654577740
 H          1.3686814427        1.2088993550       -1.2507256786
 H          2.7943432484        0.0861601502        1.2661386871
 H          1.3682541741        1.2100756712        1.2498221258
  15
        -22.89943687
 C         -1.9126035120        1.5006283344        0.0072988736
 O         -1.6599599968        0.0948054208       -0.0006230885
 C         -0.4265343463       -0.4214307503       -0.0010038259
 O         -0.3322803462       -1.6359216090       -0.0099943552
 C          0.7510096434        0.4704867072        0.0085612435
 C          1.9790327249       -0.0328588125        0.7390699556
 C          1.9748839236       -0.0125618791       -0.7426919855
 H         -1.5030704746        1.9755066558       -0.8845478050
 H         -1.5141470626        1.9632346534        0.9105649524
 H         -2.9969648238        1.5829869951        0.0012521155
 H          0.5659497793        1.5325981619        0.0234395660
 H          2.5629716952        0.6974106364        1.2756846641
 H          1.8845830603       -0.9901948335        1.2283637642
 H          2.5557102051        0.7322265006       -1.2624725717
 H          1.8775105311       -0.9560540232       -1.2576189209
