! wb97x-v def2-tzvp def2/J RIJCOSX DEFGRID2 scfconv7 GCP(DFT/TZ) printgap
%output
    printlevel normal
end
%cpcm
    smd true
    smdsolvent "water"
end
* xyz 0 1
C -3.681431265237309 0.1752566183210451 0.10902429340291075
C -2.18600652990371 0.06467464002581863 0.013451856575312659
C -1.4904352815377184 -0.9926955672795845 0.6008297218971469
C -0.10147603961543444 -1.0796561355655085 0.5215635395779923
C 0.6556416068611312 -0.11357071387555387 -0.15094287667346193
C -0.04925987065865824 0.9443640615014695 -0.7429206816863951
C -1.4353788614124563 1.0308739977697334 -0.663154971136698
C 2.1725187793137586 -0.2256352504169713 -0.2677699208057874
C 2.8035939628471853 -0.9873109679484805 0.9028569182712106
C 2.8585364907370807 1.1367339041987055 -0.41866180002774994
H -3.9738744201343454 1.0695869559153357 0.6708731521859261
H -4.136642272191447 0.2584492696990177 -0.8836897124704893
H -4.111010081912887 -0.6952505389453061 0.6113178549735092
H -2.0417058035124267 -1.7632804247104117 1.1339292462422643
H 0.38785815657867756 -1.9226319298499062 0.9967802340961318
H 0.4842830595459549 1.72099485056084 -1.2797339733477897
H -1.9445024031525744 1.8686090928169383 -1.1339340584675057
H 2.3815971844071835 -0.8002675776141979 -1.1827756452206015
H 3.8920869726154854 -0.9999288043219409 0.790595220564643
H 2.470884730202605 -2.0269329299439742 0.9569633368548235
H 2.566317825955768 -0.5014855046802593 1.8564950908448408
H 3.944035487030762 1.001816293518258 -0.4514156105034264
H 2.6225871105615033 1.787411487786672 0.43143364531899964
H 2.5678199373369566 1.6543306609023998 -1.3361885599374859
*
