! pbe def2-sv(p) def2/J RI DEFGRID1 loosescf d4 GCP(DFT/SV(P)) printgap
%output
    printlevel normal
end
* xyz 0 1
C -2.5439625361 -0.6970854325 -0.3721359606
C -1.1696429693 -0.3347418665 0.207833909
H -1.2277535022 -0.2970418361 1.3084943058
C -0.7052632938 1.0429695213 -0.3193457985
H -0.7027844615 1.0059252513 -1.4150170232
C 0.7220738619 1.3218591152 0.1891786746
H 0.704995642 1.3764057692 1.2864281304
C 1.6406384236 0.1588881922 -0.2356341442
H 1.6574218999 0.0868705509 -1.3292589243
C 1.0509291501 -1.1567525243 0.3318126663
H 1.0285928136 -1.1005907719 1.4345868343
O -0.253594895 -1.3438030251 -0.173054764
O 1.8054642868 -2.2674118834 0.0290288347
O 2.9761228036 0.3518718425 0.1369747425
O 1.2043361813 2.5754534387 -0.2118237265
O -1.6047183159 2.0638067413 0.0172603112
O -3.1905300354 -1.7381379564 0.3095147173
H -2.4004338875 -1.0544303012 -1.3931957497
H -3.1574024326 0.2116744108 -0.387853993
H 1.7406339067 -2.4627928392 -0.9186897397
H 3.0538026742 0.4271690039 1.0985814339
H 1.2959332236 2.6097115611 -1.1743050033
H -1.4696124344 2.3419532952 0.9350310525
H -3.4194469123 -1.4522377884 1.2053940669
*
