! r2scan-3c def2/J RI DEFGRID2 scfconv6 printgap
%output
    printlevel normal
end
* xyz 0 1
C 3.7094966315 -0.151504094 0.0824689758
C 2.2255875127 -0.1787778287 -0.0277694967
C 1.4659206826 0.9013252412 0.2094889186
C 0.0190382061 0.9374852398 0.0668174464
O -0.607396558 1.9664201112 0.3028479046
C -0.6281000495 -0.3368060083 -0.4484943753
H -0.504654936 -0.2878298929 -1.5403980179
C 0.1560880345 -1.551545821 0.0541787715
C 1.6023548456 -1.4788566921 -0.4205907801
C -2.1391430713 -0.4577520791 -0.1655317894
C -2.4727259405 -0.2632901173 1.3123896091
C -2.941731335 0.5193739341 -1.0240407994
H 4.1566380012 -0.5501009214 -0.8261325725
H 4.0270954761 -0.7873268502 0.9077933537
H 4.076924427 0.8558754701 0.2535065868
H 1.9139389955 1.8389740588 0.5102253537
H 0.1365704898 -1.5713930829 1.1454420692
H -0.3145226224 -2.4653809926 -0.3109596571
H 2.1823332792 -2.3083703346 -0.0139773669
H 1.6338656928 -1.5607803554 -1.5120132947
H -2.4335196408 -1.4760215452 -0.4491967149
H -2.2043293593 0.7413634367 1.6304873071
H -1.9411805812 -0.9800796175 1.9329963669
H -3.5396764223 -0.3978763596 1.472635382
H -4.0059559889 0.3980044255 -0.8367418233
H -2.7563599583 0.3460022474 -2.0821514771
H -2.6639069566 1.5428712675 -0.7859411428
*
