! wb97x-v def2-tzvp def2/J RIJCOSX DEFGRID2 scfconv7 GCP(DFT/TZ) printgap
%output
    printlevel normal
end
* xyz 0 1
C 4.48912466707113 -0.3066999662997696 -0.022522709522978347
C 3.6665677404708963 -1.0869592376809731 0.7878202739427407
C 2.2956345876037796 -0.8555004085217787 0.8266176440689316
C 1.7585146185203384 0.15939513489642548 0.040062061251001896
C 2.5670580639252574 0.9451827493555653 -0.7744987018253889
C 3.9385938284780186 0.7099495045249666 -0.7987733471184238
N 0.3458575883672914 0.42712698000330035 0.08703703866609347
C -0.5693068427943733 -0.592762006714294 -0.26184247218666207
O -0.16256486878018012 -1.7104474523227375 -0.61776157998083
C -1.9332022930036412 -0.19077523886989586 -0.17083384976803315
C -2.311919639527753 1.09414375259915 0.17776175901229374
C -1.2422867422397232 2.0046531493583406 0.453399063902369
N 0.016685588373971848 1.685073928524037 0.4102069896916812
N -3.5803822641114467 1.5237473873902578 0.26789048762065043
Cl -3.145381953386931 -1.3801119841974698 -0.5586312696580479
H 5.558397284691171 -0.4898135713997601 -0.046866439446305065
H 4.092986345337717 -1.8744894245368153 1.4005635346082346
H 1.6494497307897014 -1.4483670708039276 1.4640612840037026
H 2.1264609845896145 1.7284400098603185 -1.381740028276849
H 4.574925463297911 1.320258785099279 -1.4311758073222953
H -1.4672044238988349 3.032194768359291 0.7244788747159662
H -3.7681425218566043 2.4844878112321496 0.5057380747909853
H -4.355464983288393 0.9158929283240863 0.05703966651715504
*
