! r2scan-3c def2/J RI DEFGRID2 scfconv6 printgap
%output
    printlevel normal
end
* xyz 0 1
C -2.8345171761 0.0097225728 0.5200162576
C -1.4645119367 -0.0394484025 -0.0932012677
O -1.2910019616 -0.3813877475 -1.2463125041
C -0.3400530499 0.3559065255 0.8453523171
C 0.5368178425 1.4757285865 0.2625453015
C 1.396646517 1.0004877696 -0.9038308623
C 2.2613113472 -0.1829827196 -0.4825804623
C 1.3722794263 -1.3234710797 0.0022330092
C 0.5265701675 -0.8698391301 1.186645093
H -3.0541472933 1.0315700053 0.8207811087
H -3.5818576456 -0.3318141524 -0.1909044494
H -2.8560009621 -0.6138270992 1.4105376369
H -0.7915304635 0.7217817258 1.7720559829
H -0.0992755006 2.3034001576 -0.0596376267
H 1.1876809046 1.8409526557 1.060339732
H 0.7519096521 0.6983035751 -1.7309345107
H 2.0252520408 1.8237963561 -1.2490566065
H 2.868947848 -0.5174622019 -1.3250721774
H 2.9356479787 0.1227684614 0.3212294354
H 0.7190315319 -1.6402185024 -0.8134596046
H 1.98233415 -2.1792996035 0.2977048424
H -0.1141939301 -1.6882726615 1.5225288608
H 1.1859786087 -0.5953531752 2.0128710758
*
