! wb97x-v def2-tzvp def2/J RIJCOSX DEFGRID2 scfconv7 GCP(DFT/TZ) printgap
%output
    printlevel normal
end
%cpcm
    smd true
    smdsolvent "water"
end
* xyz 0 1
C -3.4359724597504813 0.5744370386308686 0.05651249209132196
C -1.939418970896838 0.4790011644183306 0.06899340988305533
C -1.142281925810758 1.5053675280322805 -0.25050020612887697
C 0.3549171562541048 1.4465057465152782 -0.28898963745850337
C 0.877041642451472 0.0009333117257839168 -0.2937189291409236
H 0.6236036626156907 -0.4358980169819971 -1.2682868976982802
C 0.12968003514507628 -0.7854028294464737 0.7883982134507238
C -1.3645525083679253 -0.8496187260197403 0.49071669481997876
H -1.8952104721868515 -1.1794255367986701 1.397133569188124
O -1.6561915540252474 -1.8003161237065528 -0.5710555237794761
C 2.379439066109776 -0.05459886597039722 -0.1398865170499064
C 3.1635481069535873 -0.34421942839112557 -1.1837800991343927
C 2.9506350077350265 0.23064491525566663 1.2194371204282142
H -3.8725081331641626 -0.17104276674399674 -0.6185065450718581
H -3.770648631587041 1.5646242119494966 -0.26419242285096484
H -3.8470881480093864 0.37353024724194217 1.0538870225262198
H -1.5980307756073366 2.461825921232706 -0.5063225815071648
H 0.7187715810999629 1.973674836206763 -1.179729910316701
H 0.7630556032122812 1.9958823327178052 0.5723312688473736
H 0.5211248031881098 -1.8063977404807907 0.8764526952181948
H 0.266412708628886 -0.2981074916500125 1.7624849635808337
H -1.4321460159070316 -2.6764603058157705 -0.2300860932834752
H 4.246590311745799 -0.3651359213760356 -1.0907170393751946
H 2.7414272152956967 -0.5635110513193009 -2.161629014836965
H 2.570444473263049 1.1740634912003827 1.6278667230591453
H 2.667388486490779 -0.5536495929290091 1.9314922903705045
H 4.041714679896331 0.28212372967068755 1.1852668619922484
*
