! pbe def2-sv(p) def2/J RI DEFGRID1 loosescf d4 GCP(DFT/SV(P)) printgap
%output
    printlevel normal
end
* xyz 0 1
C -2.4530030049 0.1795996059 1.4744701178
O -1.1891908053 0.1079798422 0.8103994499
C -1.1990938453 -0.1975766993 -0.4784229534
O -2.2313417897 -0.4107209018 -1.0872531668
C 0.1638229019 -0.2604272092 -1.1303141066
C 1.05177269 -1.3567071171 -0.5201306226
C 1.6248727959 -0.9717617376 0.8397419396
C 2.386630569 0.345799619 0.7443922449
C 1.4552441362 1.4505729879 0.2571998223
C 0.8805854922 1.0992463417 -1.1110525439
H -3.0794446639 0.937695835 1.0029945997
H -2.2311434282 0.4410528095 2.5043503355
H -2.9605789039 -0.7838358941 1.4145607758
H -0.0463690254 -0.5257636037 -2.172764532
H 0.4791134429 -2.2834398004 -0.440834931
H 1.8758813283 -1.5321115735 -1.2145346007
H 0.81829021 -0.8697602114 1.565934843
H 2.2903722129 -1.7661076606 1.1824253261
H 2.7961287186 0.6092325949 1.720579765
H 3.219793236 0.2363894679 0.0466465607
H 0.6461377343 1.5825524146 0.9757550177
H 1.9988942838 2.3940691566 0.1825602829
H 0.1891950083 1.8772358386 -1.4423840217
H 1.6964267703 1.0475585701 -1.8348123298
*
