! r2scan-3c def2/J RI DEFGRID2 scfconv6 printgap
%output
    printlevel normal
end
* xyz 0 1
C 3.7240317247 0.1857581768 0.042722153
C 2.2459590452 0.3315457833 -0.3090707868
H 2.1595360186 0.5519502377 -1.3790528412
C 1.6000782878 1.471347672 0.4764177491
C 0.119476303 1.5947219909 0.1325782239
C -0.6463270652 0.2995104784 0.4264697179
H -0.5226603011 0.0700375187 1.4925923089
C 0.001172768 -0.8447303887 -0.37455807
H -0.0914453517 -0.6368665674 -1.4454568976
C 1.4872611631 -0.9613004413 -0.0180830017
O -0.6466041886 -2.0922481325 -0.1977938674
C -2.1587649189 0.4938247946 0.1731555493
C -2.5372713219 0.4367719183 -1.3055329875
C -3.0040654346 -0.5128286116 0.9541437726
H 4.1749212443 -0.6220417968 -0.5284916376
H 4.259673819 1.1055137613 -0.1790524285
H 3.8424400782 -0.0336941278 1.101536906
H 1.7121502513 1.279921823 1.5461560212
H 2.1074747911 2.4111256644 0.2505551943
H -0.3208032293 2.4102672063 0.7099210342
H 0.0176988333 1.8429851318 -0.9257347213
H 1.5807778257 -1.2008596915 1.0451037821
H 1.9167256271 -1.7879966261 -0.5885846306
H -0.4955167631 -2.3859054838 0.7113509523
H -2.4083742969 1.4950205477 0.546972889
H -3.5824077232 0.7120559322 -1.4276736413
H -2.4043935159 -0.5708578163 -1.6913294597
H -1.9347360011 1.12331187 -1.8947069513
H -2.8307703255 -1.5187361125 0.5824941152
H -4.0603910447 -0.2815546089 0.8358038086
H -2.765176863 -0.4793853016 2.014949802
*
