! r2scan-3c def2/J RI DEFGRID2 scfconv6 printgap
%output
    printlevel normal
end
%cpcm
    smd true
    smdsolvent "water"
end
* xyz 0 1
C -1.7383849581 -1.2635630153 -0.1399517987
C -1.1169575769 2.5051e-06 0.4146765531
C -1.7383853721 1.2635618074 -0.1399530458
Br 0.8485921604 -3.81e-08 -0.018363114
H -1.6680882397 -1.2808561925 -1.2254672678
H -1.2443893089 -2.1484328466 0.2547513986
H -2.7883405416 -1.2955796204 0.1427743762
H -1.1302768837 3.44841e-05 1.5057287531
H -1.6680858396 1.2807765542 -1.225460317
H -1.2444138117 2.1484797019 0.254695103
H -2.7883469349 1.2955654852 0.1427411403
*
