! pbe def2-sv(p) def2/J RI DEFGRID1 loosescf d4 GCP(DFT/SV(P)) printgap
%output
    printlevel normal
end
* xyz 0 1
C -2.2285012238 -1.0075111695 -0.3790830697
C -1.1501654449 -0.2406855267 0.4001287603
H -1.6075948275 0.1609271843 1.3145769252
C -0.5756806095 0.9110726321 -0.4299409227
H -0.404394947 0.5821778988 -1.461368021
C 0.769859908 1.3271687893 0.1810742464
H 0.6420115945 1.5004240198 1.2633388432
C 1.7658168792 0.1767377634 -0.0120755632
H 2.1578540999 0.2369977709 -1.0378312386
C 1.0577703362 -1.1862075383 0.1273495892
H 1.7101475969 -1.8307326471 0.7313502402
O -0.1302171338 -1.1254297014 0.8738599402
O 0.8512306093 -1.7011851952 -1.1513631702
O 2.8110678234 0.2134898858 0.9237824022
O 1.2796155416 2.4875754933 -0.4275089429
O -1.4533714209 2.000597291 -0.5240365624
O -2.9761675466 -1.8631777502 0.4481042651
H -1.7546069972 -1.5647526688 -1.1965804668
H -2.9360162368 -0.2909675499 -0.8014383256
H 0.7175993752 -2.6604360959 -1.1148178392
H 3.2842536871 1.0540988136 0.8302708313
H 0.5307585125 3.0147022898 -0.7522260267
H -1.7408531422 2.2732002584 0.3610179449
H -2.364735571 -2.4325784329 0.9375044599
*
