! wb97x-v def2-tzvp def2/J RIJCOSX DEFGRID2 scfconv7 GCP(DFT/TZ) printgap
%output
    printlevel normal
end
* xyz 0 1
C -2.326545947241557 0.0066901968531958775 0.00015047200959404086
C -1.6166815699310066 1.2056093071729947 -7.133369834601901e-05
C -0.22533637012630847 1.2044664453544511 -0.00011252376621426212
C 0.46761291362255664 -0.010473499501794175 4.021053500098618e-05
C -0.23841762141199466 -1.2171112284284222 0.00019687452206327798
C -1.6302404989716115 -1.2000509185862385 0.00026923176812552037
S 2.2513409460260556 0.04909280648506879 -9.391173221304996e-05
H -3.41151446403817 0.012732463922993455 0.00019627275319599068
H -2.146296805049438 2.153337651362147 -0.00011301370840087165
H 0.3164825759753707 2.1456641162237915 -0.00023025886091540434
H 0.29122263414501404 -2.1648043611966212 0.00029149611976526224
H -2.170781749247169 -2.141698957854112 0.00039878870638327193
H 2.4511939685569963 -1.2823652439927278 0.00014600168256823795
*
