! r2scan-3c def2/J RI DEFGRID2 scfconv6 printgap
%output
    printlevel normal
end
%cpcm
    smd true
    smdsolvent "water"
end
* xyz 0 1
C -3.432535271 0.5808181748 0.026233127
C -1.9376940185 0.4999993039 0.0645066869
C -1.1446133336 1.4896911442 -0.3213413768
C 0.3507179144 1.436247952 -0.3201191247
C 0.8578044583 -0.0045516466 -0.1983735923
H 0.5957164164 -0.5321736621 -1.1218532444
C 0.0946043073 -0.68341366 0.9409120615
C -1.3793144309 -0.8194239293 0.5503000455
H -1.9599645292 -1.1412935836 1.4319457436
O -1.5698566283 -1.7688931255 -0.4925334456
C 2.3569696505 -0.0446660699 -0.0182632797
C 2.9502642239 0.331129416 1.1041115055
C 3.1323824846 -0.5220878846 -1.2075948031
H -3.8412870007 0.4983167748 1.03290143
H -3.823676508 -0.2471914802 -0.563197114
H -3.7608129436 1.5183696967 -0.4129116944
H -1.5801247891 2.4222108113 -0.6553501657
H 0.731636249 1.8920681281 -1.237083199
H 0.7314533964 2.0306723344 0.5168968734
H 0.5193375705 -1.6683644734 1.146434807
H 0.159837606 -0.0860379907 1.8503429235
H -1.2578962842 -2.6326051188 -0.1915375228
H 4.0213657837 0.3079146882 1.2130338513
H 2.3976148704 0.6772103587 1.9604947372
H 2.8979346073 0.0915520326 -2.076299589
H 4.20232804 -0.4789343703 -1.0233666033
H 2.8570999432 -1.549011601 -1.4448529297
*
