! wb97x-v def2-tzvp def2/J RIJCOSX DEFGRID2 scfconv7 GCP(DFT/TZ) printgap
%output
    printlevel normal
end
* xyz 0 1
C -2.184024506047993 -0.07154266049923809 -0.2154098412016288
C -0.7944791317992999 0.012943382823283006 0.40242763157168465
C 0.09738265137726002 -1.2298122274059198 0.11126328192104584
C 1.48060391101131 -0.682724823971468 -0.3145949753203256
C 1.4812645102818829 0.7773031575183779 0.1584635348622441
C 0.03656463871621062 1.20756929405509 -0.09830791996203252
H -2.745170823243677 -0.9271279923923869 0.17667707103551963
H -2.767845818025457 0.8329858223723322 -0.009755195804521038
H -2.113420074042537 -0.18671117933632758 -1.3036622340798705
H -0.9022276078865528 0.11496402259503939 1.4901209617892333
H 0.17907047742434448 -1.8598323782789088 1.002720031521751
H -0.3443238802582299 -1.8485727573600335 -0.6774069377522915
H 2.3124042716216646 -1.2659996136009284 0.09183979518554476
H 1.5703598059092267 -0.7029031858155377 -1.4068828886698805
H 1.6968280483288787 0.8269797665365745 1.2337001803089733
H 2.2211308315402234 1.394944583457042 -0.36086193696552576
H -0.23908575277442376 2.1458170468124713 0.3945966386971988
H -0.12039218606819603 1.3370389132024494 -1.178439961284023
*
