! pbe def2-sv(p) def2/J RI DEFGRID1 loosescf d4 GCP(DFT/SV(P)) printgap
%output
    printlevel normal
end
* xyz 0 1
C -3.4020539875 -0.6588967315 -0.4842881449
O -1.9878837878 -0.5379330804 -0.6586235065
C -1.3319879993 0.2459377591 0.1891750827
O -1.8842669924 0.8474735866 1.0882054827
C 0.1461448876 0.3260930346 -0.1158450566
C 0.6735835979 -0.9174764164 -0.8472672574
C 2.1823633307 -1.085477996 -0.6252253586
C 2.8597655703 0.2738524577 -0.4894302493
C 2.3940087588 0.9778919678 0.792044677
C 0.956513556 0.5885483534 1.1545220419
H -3.7295464168 -1.3652898492 -1.2403632889
H -3.8790600238 0.3122381921 -0.6208565403
H -3.624634257 -1.0242297348 0.5188915236
H 0.2511491913 1.2039005288 -0.7652693703
H 0.1512815417 -1.8045176546 -0.4863418368
H 0.4576820131 -0.8240254082 -1.9118128689
H 2.3665426169 -1.6625826817 0.281906611
H 2.6118397946 -1.63926842 -1.4605298704
H 3.9432951831 0.1531802269 -0.4699558567
H 2.6133644507 0.8795965314 -1.3629424415
H 3.0492156939 0.7107810017 1.6218381303
H 2.4613640969 2.0580965093 0.6560383824
H 0.9477323127 -0.3160311728 1.7646343691
H 0.4785682327 1.3780916927 1.7359067897
*
