! wb97x-v def2-tzvp def2/J RIJCOSX DEFGRID2 scfconv7 GCP(DFT/TZ) printgap
%output
    printlevel normal
end
%cpcm
    smd true
    smdsolvent "water"
end
* xyz 0 1
C -4.072204676281802 -0.3919210608383199 -0.002712914864924118
C -3.9381948992870983 0.9959947570109533 -0.0022836116988193184
C -2.6741118190184023 1.5704930726189987 -0.000638328902844456
C -1.53422617897015 0.7630934418881278 0.00042541491063168376
C -1.668250749143497 -0.6379627379212175 6.386575013919567e-05
C -2.9441148244874964 -1.203462852147557 -0.0013963610138959723
C -0.4745330503783004 -1.5251599143770842 0.000997500291674973
O -0.6158168365863025 -2.7591679323341602 0.0022989752507271205
C 0.838075765676 -0.8985677753982104 0.0006674956868072096
C 1.998487505009196 -1.6914954204300192 9.981936559949918e-07
C 3.2539967884827434 -1.129057817705529 -0.001061969237872393
C 3.4080262192028115 0.2773548653116224 -0.0013104432377787243
C 2.249676580155738 1.0819370507702213 -0.00028768813410371216
C 0.9904761685011325 0.5072424425150179 0.0006016954260948935
C -0.1975246832132501 1.397807916441333 0.001721222110437816
O -0.07659815647383887 2.6242032255482344 0.0035272628523009488
N 4.6355970257581705 0.839524441910704 -0.0021597261642457405
H -5.059801410942653 -0.841134926989473 -0.004083409093061303
H -4.82020837708176 1.6275662350354416 -0.0032644419625227155
H -2.559741356047754 2.6486273847555473 -0.00031490873395520523
H -3.0456781106707 -2.282677410935622 -0.001687573036662856
H 1.8952370023025675 -2.771231508871568 4.0571094560819185e-05
H 4.139237670562056 -1.7576593180894315 -0.0018283517898779798
H 2.3496974699769644 2.162271704906377 -0.00032435347946597386
H 4.739884196567134 1.840927809552848 -0.004073710558176753
H 5.462373070662047 0.2648153101079185 -0.004549350070829539
*
