! pbe def2-sv(p) def2/J RI DEFGRID1 loosescf d4 GCP(DFT/SV(P)) printgap
%output
    printlevel normal
end
* xyz 0 1
C -2.2671028383 -1.127254406 -0.1103979769
C -0.8895590411 -0.5673780807 0.2468839407
H -0.7455243886 -0.6142604425 1.3355593592
C -0.7425543833 0.899243517 -0.199769912
H -1.2007337165 1.0031834623 -1.1976138322
C 0.7519937747 1.2705262056 -0.3197758941
H 0.8615772019 2.2839606207 0.0933642728
C 1.6280218004 0.3025761549 0.4930162807
H 2.6831049283 0.5393618109 0.2903924582
C 1.4057284488 -1.1413206179 -0.0103904634
H 1.6686974521 -1.8316085073 0.8074669373
O 0.0691072805 -1.3751435112 -0.4110139431
O 2.2313113322 -1.454618132 -1.07042673
O 1.361537386 0.3361641206 1.8690865748
O 1.222811803 1.2100094742 -1.6433153458
O -1.3389182386 1.7926157288 0.7046528259
O -3.2461495135 -0.3091314525 0.4876436707
H -2.3257900526 -2.158673571 0.2533194423
H -2.3657711308 -1.1325855049 -1.2030463954
H 2.0227552737 -0.8581033978 -1.8116055952
H 1.5444639357 1.2208589594 2.219162818
H 0.8131676449 1.9092029693 -2.1728614857
H -2.2373619442 1.4748142462 0.894467599
H -4.1237899984 -0.6762471871 0.3108628333
*
