! r2scan-3c def2/J RI DEFGRID2 scfconv6 printgap
%output
    printlevel normal
end
%cpcm
    smd true
    smdsolvent "water"
end
* xyz 0 1
C -1.9240597753 -0.2556006067 0.5221592275
C -1.176196235 -0.0905072797 -0.7951401866
C 0.0983211243 0.7224880351 -0.6364715251
S 1.3232201284 -0.1957602975 0.3907791361
H -2.824601124 -0.8457700279 0.3757448142
H -1.2960708245 -0.7622310193 1.2525711437
H -2.2057155494 0.714766062 0.9250208513
H -1.8155693249 0.419455388 -1.5193219571
H -0.924917054 -1.0736462442 -1.2001909205
H 0.5670698732 0.9017422284 -1.6030041295
H -0.1020968102 1.667975729 -0.1338917983
H 2.2787860794 0.7202803116 0.308676372
*
