! wb97x-v def2-tzvp def2/J RIJCOSX DEFGRID2 scfconv7 GCP(DFT/TZ) printgap
%output
    printlevel normal
end
%cpcm
    smd true
    smdsolvent "water"
end
* xyz 0 1
C -2.9145712723586796 1.4696159775977846 -0.00016278397213007412
C -1.8104237750236039 0.4540719714449008 -0.00012032643689302393
C -2.105129561175777 -0.9165326596262173 3.251842113105789e-05
C -1.0969260458117 -1.8753841915453788 0.000245003337855548
C 0.23819771371886303 -1.492690806848931 0.0001884962455994522
C 0.5201308480597364 -0.1312838459016195 -0.00010206830223256307
C -0.4742352229531947 0.8442068710205233 -0.00013541777928164164
N 1.9196543071527776 0.29656359693772283 -0.000576963137854619
O 2.796731819199752 -0.5677215568790801 -0.0004602803410728476
O 2.1641472286352723 1.5032032282659908 0.0005574127696757119
H -3.5514698107964806 1.3474005569805636 0.882133193134288
H -2.518118833808134 2.4870605224327433 -0.0027765606032402247
H -3.554670004816117 1.3439621843633538 -0.8796280768993452
H -3.144371071400692 -1.2328839979965724 -2.049287418864349e-05
H -1.351040432437476 -2.9298037028459842 0.00035205896966091714
H 1.0345827266764906 -2.22540484254084 0.0003259580311621967
H -0.20773781693776489 1.894062000784005 -0.0002931325532295298
*
