! r2scan-3c def2/J RI DEFGRID2 scfconv6 printgap
%output
    printlevel normal
end
%cpcm
    smd true
    smdsolvent "water"
end
* xyz 0 1
C 1.8169083845 -0.4824096192 0.5069492955
C 0.8326120912 -0.3441857803 -0.6604890743
C -0.4753369618 0.2084878144 -0.1509367958
O -0.7795418494 1.3781289101 -0.2198227451
O -1.3011511195 -0.6576597692 0.4317464785
H 1.4294786703 -1.1457989471 1.2757020357
H 2.7593560898 -0.8815606148 0.1443405909
H 2.0011855603 0.4905793318 0.9558194116
H 1.2323729855 0.3551084363 -1.3942310731
H 0.674277234 -1.3123315672 -1.1361476781
H -0.9769015055 -1.5768217898 0.4187525853
*
