! pbe def2-sv(p) def2/J RI DEFGRID1 loosescf d4 GCP(DFT/SV(P)) printgap
%output
    printlevel normal
end
* xyz 0 1
C -1.6392135922 -0.9638501705 -0.8302745226
C -0.9013809732 0.0215059616 0.022739642
O -1.4950948431 0.8184939449 0.7260290621
C 0.6272006877 0.0075713693 -0.0003149768
C 1.0888576698 -0.2761686674 1.4372755586
C 1.0823812545 1.4152727662 -0.4128457161
C 1.2351910569 -1.0251138295 -0.9462210191
H -1.3723645241 -0.8215423348 -1.8737723783
H -1.3625769592 -1.9758202032 -0.5472503288
H -2.7098464173 -0.8267153305 -0.7025304391
H 0.7942786543 -1.2781709567 1.7419702603
H 2.1702629674 -0.1940525816 1.5047642183
H 0.6374962371 0.4385335493 2.121713379
H 2.1630477064 1.4969054335 -0.3336765797
H 0.623987592 2.1597931068 0.2341679136
H 0.7897380813 1.624749135 -1.439564583
H 2.3192621745 -0.9573461487 -0.892285452
H 0.9389698042 -0.8427114305 -1.9751635412
H 0.9485759088 -2.0352430027 -0.668326748
*
