! pbe def2-sv(p) def2/J RI DEFGRID1 loosescf d4 GCP(DFT/SV(P)) printgap
%output
    printlevel normal
end
* xyz 0 1
C -2.2169793102 -0.9567857501 -0.4234791779
C -1.1735885719 -0.1965899007 0.4107442904
H -1.6638618245 0.2331287494 1.2929950014
C -0.5807797406 0.9583132941 -0.405853283
H -0.4327015134 0.6450432575 -1.4511586238
C 0.7897073668 1.3211392431 0.1771967485
H 0.6719641725 1.5097461948 1.2571640725
C 1.7463555372 0.1373915878 -0.0314091351
H 2.1060427696 0.1536074196 -1.0656171938
C 0.9989487462 -1.2023817856 0.1755603423
H 1.6306214296 -1.8641913517 0.7874232055
O -0.167926041 -1.0538497876 0.9454232229
O 0.7553529354 -1.7583974661 -1.0768278523
O 2.8908943285 0.2453768319 0.773581323
O 1.23988036 2.4863388299 -0.4685838164
O -1.480599069 2.0326590729 -0.3443477097
O -2.8181478325 -2.0218565737 0.2661632554
H -1.7373376771 -1.3986346056 -1.2986480511
H -2.9625251504 -0.2241425317 -0.7585470534
H 0.4262969586 -2.6656266585 -0.9787119976
H 2.6451181502 0.1951105766 1.7095604301
H 2.1553997618 2.662630566 -0.2080354338
H -1.0336447548 2.8179813582 -0.6983285516
H -3.2640407049 -1.6857349978 1.0561890454
*
