! pbe def2-sv(p) def2/J RI DEFGRID1 loosescf d4 GCP(DFT/SV(P)) printgap
%output
    printlevel normal
end
* xyz 0 1
C -2.4182952084 -0.6860574866 0.0129255827
C -0.9852906456 -0.2654905102 0.3500819803
H -0.9358055985 0.0234473507 1.4088687956
C -0.5215091091 0.9083633229 -0.5163251759
H -0.4946174329 0.5673901129 -1.563480698
C 0.9046114037 1.3341826349 -0.0993482249
H 0.8106832287 2.1322098046 0.6459775068
C 1.6811393397 0.1560825331 0.5335139318
H 2.7423904257 0.2732586698 0.2725381108
C 1.2019334462 -1.156796455 -0.0962746296
H 1.7357763021 -2.0009488627 0.3655089291
O -0.1564079134 -1.4089120002 0.1384324933
O 1.4805730083 -1.0734447534 -1.4635069749
O 1.5098698106 0.0529584981 1.9217590704
O 1.6143591322 1.8947312415 -1.1749931048
O -1.4412736807 1.9605382103 -0.3710829093
O -2.9001432592 -1.6754947288 0.8842011468
H -2.4501898933 -1.0388645541 -1.026500441
H -3.0739975537 0.1786755555 0.1217102055
H 1.2694442418 -1.9148528201 -1.8962802385
H 1.9695838544 0.7817567491 2.3640691205
H 1.7854193504 1.2008454613 -1.8309420585
H -1.1545575295 2.7065729978 -0.9188502917
H -2.2647788426 -2.40624098 0.8926756931
*
