! r2scan-3c def2/J RI DEFGRID2 scfconv6 printgap
%output
    printlevel normal
end
%cpcm
    smd true
    smdsolvent "water"
end
* xyz 0 1
C -2.9990180801 0.2542977832 2.9376e-06
C -1.6379412738 -0.4337840883 -6.94708e-05
C -0.5064932819 0.5929191117 -0.0004630323
C 0.9248566527 0.0251389134 -5.3016e-06
C 1.1800307896 -0.820766157 -1.2499874587
C 1.8990192641 1.2093790696 0.0004910936
C 1.1790535719 -0.8210477785 1.2499873699
H -3.7995625504 -0.4816682495 0.0005797617
H -3.1092586295 0.8823825835 0.8814137505
H -3.1098380332 0.8815660699 -0.8818931457
H -1.5632827349 -1.0698208892 0.8829764121
H -1.5635890195 -1.070176508 -0.8828836905
H -0.6218275223 1.2315992965 0.8794433628
H -0.6216024536 1.2307666706 -0.8810010001
H 0.5725502489 -1.7217605406 -1.2432307982
H 0.9497373045 -0.2536434468 -2.1491222578
H 2.2250332552 -1.1198428407 -1.2921376465
H 1.7492935844 1.8288697612 -0.8809857487
H 2.9280548151 0.8571690452 -4.5448e-05
H 1.7498007027 1.8276940118 0.8828804736
H 0.946468357 -0.2546945277 2.1490138061
H 0.5728173389 -1.7228693565 1.2417632094
H 2.2243984173 -1.1187030906 1.2937516602
*
