! r2scan-3c def2/J RI DEFGRID2 scfconv6 printgap
%output
    printlevel normal
end
%cpcm
    smd true
    smdsolvent "water"
end
* xyz 0 1
C -0.743538872 1.4723e-06 2.8373e-06
F 0.639712395 3.0232e-06 -1.493e-07
H -1.0659545933 0.9804425086 0.3434558938
H -1.065874923 -0.1927956711 -1.0208177675
H -1.0658435252 -0.7877213644 0.6773308793
*
