! pbe def2-sv(p) def2/J RI DEFGRID1 loosescf d4 GCP(DFT/SV(P)) printgap
%output
    printlevel normal
end
* xyz 0 1
C -2.299764952 -0.868399746 0.7260409521
C -0.8512406991 -0.3766479207 0.7722797961
H -0.6200025964 -0.0634631117 1.8003780932
C -0.6464936206 0.8197879758 -0.1627594691
H -0.8848927146 0.4880813687 -1.1834281827
C 0.8205318008 1.3039168326 -0.1199544072
H 0.8788771877 2.1292961195 0.5991466761
C 1.7764561555 0.1794215414 0.3368848471
H 2.7439470369 0.3352252882 -0.1612081568
C 1.2222053879 -1.1647899664 -0.1484259886
H 1.8915158026 -1.9794105137 0.1699921243
O -0.0161047583 -1.4756873501 0.4222190554
O 1.1542541796 -1.0932683183 -1.5435993906
O 1.9294697339 0.1036071132 1.7293269852
O 1.2254096722 1.8418999974 -1.3544760862
O -1.5311308025 1.8350374146 0.2472995139
O -2.6595162176 -1.1455873953 -0.6077712294
H -2.9323128884 -0.0794617113 1.1479012522
H -2.3632628032 -1.7723692119 1.3424912423
H 0.7786688157 -1.9164633337 -1.8917660137
H 2.4326770207 0.8694043892 2.0437977389
H 1.2551452239 1.1246745747 -2.0073074757
H -1.4940978431 2.5595519304 -0.3937944742
H -3.5699957383 -1.4711096018 -0.6257218834
*
