! wb97x-v def2-tzvp def2/J RIJCOSX DEFGRID2 scfconv7 GCP(DFT/TZ) printgap
%output
    printlevel normal
end
* xyz 0 1
C -2.587111405607782 -0.6118190624779091 -0.3202721865275744
C -1.2058108703881076 -0.2703849542082984 0.20173589804614658
H -1.2188552371963497 -0.2430279591393144 1.3035227595797252
C -0.6942538423001434 1.0646962788555256 -0.33657251573203373
H -0.7181418608761968 1.040464906351319 -1.437782999949986
C 0.7404667420129959 1.2804448947823517 0.12454517124273747
H 0.7368956800247541 1.3976560225646952 1.2214816095263918
C 1.6281455607597684 0.0886422774095252 -0.2304899448329081
H 1.7208926950618766 0.002775005767314311 -1.3197078692308921
C 0.993317904771815 -1.1940092015038735 0.30085779200692314
H 0.9272486264538622 -1.1728887801984367 1.4022085342053199
O -0.327561274396195 -1.3171600765890756 -0.24577839230093498
O 1.7443278762263066 -2.2905731023220897 -0.14342163802402716
O 2.9535766054627515 0.2745428784595527 0.27087490025238226
O 1.209525082453361 2.4839510008691956 -0.4931371312465175
O -1.552419264753049 2.0974869309036626 0.1585904803446176
O -3.0862885951890937 -1.8293392267114776 0.24470803116906467
H -2.55493225244265 -0.674311201803479 -1.417779177861041
H -3.288011265509279 0.17617819603179835 -0.035891156073009266
H 1.531413237299027 -3.0503858796930414 0.4147354308986666
H 2.893697850096391 0.37597882083274176 1.2323362371231183
H 2.0706550555868968 2.6925657501738973 -0.10671041175634113
H -1.1692955257848243 2.9409326971436713 -0.11880579071277715
H -2.485766107683015 -2.536116595761142 -0.02685408241976093
*
