! pbe def2-sv(p) def2/J RI DEFGRID1 loosescf d4 GCP(DFT/SV(P)) printgap
%output
    printlevel normal
end
* xyz 0 1
C -2.4416917434 -1.0295435494 -0.3843796588
C -1.0806326977 -0.5560955139 0.13451367
H -1.1297052722 -0.5605725445 1.2360431932
C -0.7309948727 0.8677150196 -0.3443467974
H -0.6710087858 0.8760311811 -1.4385380151
C 0.6502974466 1.2542504515 0.2121239205
H 0.5993466213 1.3041473403 1.3128818183
C 1.6764003922 0.1793621484 -0.1704592886
H 1.8044472746 0.1941459064 -1.2642787358
C 1.1731729212 -1.2163574916 0.2516131574
H 1.1362214722 -1.2566402943 1.3546466933
O -0.0955164366 -1.475337553 -0.2962018421
O 2.0416053768 -2.2129483832 -0.1550774015
O 2.8883778223 0.4900535564 0.4716959708
O 1.0138112754 2.5067784911 -0.3083498955
O -1.7278290308 1.7936397747 -0.0274627438
O -3.4175585178 -0.655400957 0.5577744477
H -2.3938180742 -2.1208660956 -0.4915538937
H -2.6388640111 -0.5769534711 -1.361648729
H 1.8343887642 -2.4610270192 -1.0701244644
H 3.5066926585 -0.2474912871 0.3567792981
H 1.9180706454 2.7061155619 -0.0214933274
H -1.847002128 1.8409377742 0.9322350213
H -4.2977110418 -0.8236889512 0.1937346466
*
