! pbe def2-sv(p) def2/J RI DEFGRID1 loosescf d4 GCP(DFT/SV(P)) printgap
%output
    printlevel normal
end
* xyz 0 1
C -2.2671318368 -0.9793621943 0.7724802979
C -0.8291778994 -0.4452218301 0.7616836139
H -0.5747284901 -0.0873126347 1.7706863821
C -0.6333176672 0.709148845 -0.2315846122
H -0.6851288998 0.3073774954 -1.2518730601
C 0.763955743 1.2955426415 -0.0011177463
H 0.7160698743 1.9140775262 0.9094591603
C 1.7942776428 0.1841831222 0.2631035187
H 2.6719615861 0.4086590745 -0.3569411585
C 1.2612968007 -1.1933927191 -0.1708977195
H 1.9586323761 -1.9760871632 0.1741006827
O 0.039289376 -1.5284715055 0.4366339239
O 1.1769158898 -1.2048098621 -1.5615913712
O 2.1033618097 0.1964535639 1.6333428953
O 1.2028109572 2.0620725047 -1.0920397889
O -1.5706181605 1.7413801189 -0.0534705093
O -2.8435356694 -0.8498174199 -0.5093917552
H -2.8466397485 -0.4085591292 1.5081361382
H -2.2164467521 -2.027189565 1.0837518232
H 0.861670829 -2.0717855895 -1.8629867949
H 2.8812535383 -0.353777848 1.8065333326
H 0.5341865579 2.7385656044 -1.2777141689
H -2.4317337676 1.4223422932 -0.3639638897
H -3.6584061982 -1.3691601242 -0.5475233929
*
