! pbe def2-sv(p) def2/J RI DEFGRID1 loosescf d4 GCP(DFT/SV(P)) printgap
%output
    printlevel normal
end
* xyz 0 1
C -2.2255749687 -0.9726502003 -0.3902057252
C -1.1641849944 -0.2153408649 0.4271636565
H -1.6336112851 0.1884754693 1.3344759572
C -0.5791178548 0.9386965172 -0.4000151712
H -0.4382043635 0.6202974655 -1.4386100761
C 0.7910837452 1.3279280841 0.1779032336
H 0.6808710852 1.5203664132 1.2606595544
C 1.7644914383 0.1561398283 -0.0182064942
H 2.1581280264 0.2000983883 -1.0384107011
C 1.0154337726 -1.1927856805 0.1413012826
H 1.6576842279 -1.8712051906 0.7212018923
O -0.1436518108 -1.0758553678 0.9300439161
O 0.7526380468 -1.7011721846 -1.1269121085
O 2.8835247049 0.2260081233 0.8209251857
O 1.2982849026 2.4794061638 -0.4452387385
O -1.4376191089 2.0464209504 -0.4610404033
O -2.8283251862 -2.0290583177 0.3107378965
H -1.7569417337 -1.4229406333 -1.266673529
H -2.971455454 -0.2405418013 -0.727479344
H 0.4797088308 -2.6298176851 -1.0640825347
H 2.6036197934 0.3291099003 1.7428713519
H 0.547822863 3.0030152901 -0.7743716129
H -1.6500560403 2.3527922376 0.4345010933
H -3.267710773 -1.6888367773 1.1028099116
*
