  12
        -27.25247869
 C         -1.6553116112        1.2398455223       -0.0112629908
 C         -0.9507902485       -0.0224145859        0.4734616694
 H         -0.9392927483       -0.0768724805        1.5678419371
 C          0.5227381726        0.0093896517        0.0312934480
 F          1.1818776551        1.0794350789        0.5106903820
 F          1.2107607092       -1.0700758048        0.4407486675
 F          0.6586907261        0.0525668210       -1.3072091530
 O         -1.5438733077       -1.2087733679        0.0343995810
 H         -2.6957459882        1.2023047577        0.2959755080
 H         -1.6026432133        1.3089518668       -1.0958619146
 H         -1.1870877425        2.1186809646        0.4219338252
 H         -1.7568570635       -1.1519330821       -0.9106195370
  12
        -27.25168020
 C         -1.4500933721        0.5574230034        1.3694021012
 C         -0.9845575589       -0.3289755458        0.2176231686
 H         -1.0784839778       -1.3950515011        0.4779887314
 C          0.5034736001       -0.0970090955       -0.0432093518
 F          0.7948807913        1.1741397932       -0.3512447207
 F          1.2563199470       -0.4047537921        1.0306984513
 F          0.9751867442       -0.8506616212       -1.0502505528
 O         -1.6182408074       -0.0513764096       -1.0035491551
 H         -0.8443459062        0.3674284466        2.2506878011
 H         -2.4876147090        0.3405085784        1.6022664124
 H         -1.3554146317        1.6035688992        1.0882484374
 H         -2.5786577297       -0.1352304008       -0.8967315657
  12
        -27.25052388
 C         -1.8158084144       -0.0203158660       -0.9904731348
 C         -0.9781180269        0.3386339170        0.2317893214
 H         -1.0656404317        1.4114956363        0.4562227447
 C          0.5085053637        0.0942913704       -0.0762627998
 F          1.2917898033        0.3558937330        0.9915281292
 F          0.7815472051       -1.1670404497       -0.4366275899
 F          0.9610402439        0.8825648943       -1.0679170541
 O         -1.3752821726       -0.4541730490        1.3128994624
 H         -1.7060793863       -1.0797044372       -1.2063486188
 H         -1.4986955658        0.5644798734       -1.8481686815
 H         -2.8579249713        0.1855870541       -0.7707515974
 H         -1.0021346124       -0.1354489323        2.1479502919
  12
        -27.24813122
 C         -1.4602918087        0.5456330610        1.3833133333
 C         -0.9846801128       -0.3269022914        0.2112638812
 H         -1.0749682143       -1.3975985253        0.4457745291
 C          0.5036422911       -0.0966208514       -0.0442888372
 F          0.7988704180        1.1720078081       -0.3587480979
 F          1.2502340425       -0.3980642626        1.0356843059
 F          0.9797205293       -0.8572050841       -1.0443372310
 O         -1.6123079810       -0.0330263693       -1.0099861733
 H         -0.6717974841        1.2168439322        1.7125345259
 H         -1.7657818666       -0.0698560121        2.2221260785
 H         -2.2986823633        1.1543723653        1.0583748811
 H         -2.5524288771       -0.2652236738       -0.9553061585
