! pbe def2-sv(p) def2/J RI DEFGRID1 loosescf d4 GCP(DFT/SV(P)) printgap
%output
    printlevel normal
end
* xyz 0 1
C -3.408493655 -0.5682475345 0.4075348362
C -2.1529700406 -0.2866411542 -0.4145933394
H -2.4283288183 -0.2935338918 -1.4738272616
C -1.0736036432 -1.3543688445 -0.188537698
C -0.1298916777 -0.9745961897 0.949745998
C 0.6770610249 0.2914959008 0.6132078028
H 0.7786338179 0.8874584051 1.5305116112
C -0.1211303151 1.1836259408 -0.3106252722
O 0.380705681 1.9142106828 -1.1433617686
C -1.6030538075 1.1142560982 -0.0715227623
C 2.1127084949 0.0647861551 0.0978064567
C 3.0245000867 -0.449950681 1.2095963716
C 2.1730102218 -0.8596647066 -1.1155083292
H -4.1356137049 0.2291740266 0.2756652948
H -3.8644123761 -1.5030138397 0.0909584582
H -3.1659834997 -0.6435606179 1.4646617317
H -1.5504194275 -2.3099217295 0.0336842624
H -0.4941775181 -1.4768183254 -1.1039886968
H -0.7145089092 -0.8115520541 1.8557644795
H 0.5533296927 -1.7985810416 1.1504486178
H -1.7762650157 1.3112741285 0.9874057987
H -2.1080768756 1.8805284746 -0.6601172919
H 2.4776535455 1.0495397214 -0.2190932489
H 4.0451234641 -0.5304873264 0.8442353467
H 2.7090656861 -1.4330744973 1.5496394261
H 3.0185612453 0.2283185624 2.0595244867
H 1.5519748325 -0.4698364498 -1.9194890269
H 1.8449608606 -1.8645061082 -0.862862641
H 3.1957959795 -0.9188445395 -1.4807824568
*
