! r2scan-3c def2/J RI DEFGRID2 scfconv6 printgap
%output
    printlevel normal
end
%cpcm
    smd true
    smdsolvent "water"
end
* xyz 0 1
C -0.9954695613 -1.8116285645 2.01839e-05
C 0.3711614678 -1.6128776413 -1.97218e-05
C 0.8768102845 -0.3102453084 4.5999e-06
C 0.0046656134 0.7771441146 -5.25208e-05
C -1.3696592211 0.5719273002 -5.73712e-05
C -1.8640183837 -0.7322439549 2.85233e-05
O -2.1773822799 1.6559174038 3.04647e-05
C 2.3168699796 -0.0839340522 -1.59722e-05
O 2.8655695592 0.9995771675 2.05552e-05
H -1.3953613481 -2.8133133161 0.0001806449
H 1.0504218088 -2.4506003291 -4.41287e-05
H 0.4012964264 1.7805314144 -6.31773e-05
H -2.930469103 -0.9023585405 -2.93024e-05
H -3.1124232387 1.3966612864 0.0001767424
H 2.9230346827 -1.0088348792 6.89691e-05
*
