! pbe def2-sv(p) def2/J RI DEFGRID1 loosescf d4 GCP(DFT/SV(P)) printgap
%output
    printlevel normal
end
* xyz 0 1
C -2.2069796807 -0.9754653323 -0.4431198243
C -1.1636757542 -0.2251971529 0.3911075868
H -1.6699658097 0.1866464446 1.2715722706
C -0.5705554172 0.9312489542 -0.422574007
H -0.394213064 0.6073356471 -1.460983687
C 0.780679638 1.3172245867 0.1874667034
H 0.6381319871 1.5000734862 1.265162708
C 1.7592880651 0.1494246869 -0.0065003949
H 2.1465359158 0.1810316079 -1.0304540551
C 1.0250258067 -1.202037975 0.1688780112
H 1.6559113383 -1.8621812925 0.7825781225
O -0.1568659434 -1.0813720185 0.9218498717
O 0.8095357394 -1.7475654635 -1.0944280913
O 2.880346506 0.2630170679 0.8300580432
O 1.223129356 2.4914111358 -0.4475682893
O -1.4840545178 1.9949252077 -0.3983994454
O -2.8917151663 -1.8906847542 0.3804392906
H -1.7056744357 -1.4889349657 -1.2721728401
H -2.8909204862 -0.2178183657 -0.8455183525
H 0.5411852837 -2.6760780665 -1.0129233371
H 2.609399098 0.2012996075 1.758318455
H 2.1254031949 2.6905671589 -0.1588175911
H -1.0255627644 2.7878276295 -0.7204072671
H -3.5849885258 -2.3244939153 -0.1368580845
*
