! wb97x-v def2-tzvp def2/J RIJCOSX DEFGRID2 scfconv7 GCP(DFT/TZ) printgap
%output
    printlevel normal
end
* xyz 0 1
C -2.552406555414265 -0.9371811256687061 0.3352309486838268
C -1.1305937272025448 -0.4732293352904894 0.5886696520547655
H -0.9669694350021086 -0.444621757720315 1.6790441003579692
C -0.8179007958238509 0.9048547924473564 -0.0036860682587972447
H -1.0242185960876813 0.8927401200593543 -1.0822399929389344
C 0.6482614515867995 1.2547961594993924 0.21694026911808115
H 0.8213802978882185 1.3687982847187634 1.3001060892170577
C 1.5464859250497716 0.1497917371709094 -0.30623224831721485
H 1.450454739158671 0.0839859249950989 -1.4011859455016678
C 1.118836294715905 -1.1894650465098424 0.2915447103156033
H 1.2528883579898185 -1.1861119655641923 1.386097958286789
O -0.25575816579511845 -1.4464027141019846 -0.013534839978498667
O 1.8888611601079845 -2.195816886219363 -0.31136743300618613
O 2.8898727315240587 0.4608481648936936 0.06770936310940864
O 0.9970187728781051 2.465888489888204 -0.4621205623450637
O -1.585225794008626 1.9293215712349177 0.6424742869590996
O -2.8958486402252808 -0.9644008624327719 -1.0551163291522458
H -3.247163998919614 -0.24425186659776674 0.8187324190204976
H -2.6868459453617892 -1.9287783983817288 0.7882144690374343
H 1.879610223231391 -2.972556317754315 0.26463613516394185
H 3.46244522499826 -0.20291028050961193 -0.33986292287021813
H 0.41547173358493694 3.156667921091962 -0.11599386714361307
H -2.454458819924686 1.961845523656859 0.22337799064347555
H -2.3188574541590206 -1.6114476865604501 -1.4820324310360444
*
