  5
        -11.31067183
 C         -0.0000635695        0.9901641090       -0.0000112798
 Br        -1.6128786788       -0.0945627167       -0.0000055562
 Br         1.6129026080       -0.0945412268       -0.0000005767
 H         -0.0009220213        1.5955622191        0.9034371119
 H         -0.0002174418        1.5965625105       -0.9028165185
