! wb97x-v def2-tzvp def2/J RIJCOSX DEFGRID2 scfconv7 GCP(DFT/TZ) printgap
%output
    printlevel normal
end
%cpcm
    smd true
    smdsolvent "water"
end
* xyz 0 1
C -1.4692717279797864 -1.4066771379792369 0.36666232908617996
C -1.0428586013243268 -2.642217602188422e-05 9.83925816525149e-06
C -1.4690578843327173 1.0210871047339771 1.0349155302455886
C -1.46931866628234 0.38560431782346744 -1.4015606683401736
Br 1.0176572019570973 0.00033205541349436325 0.0002556960548042035
H -1.1132982599560246 -1.6892273898559265 1.360289494004027
H -2.5662596711098464 -1.43618201440862 0.37395382895108326
H -1.1128882418511985 -2.138281795864427 -0.36243420805535903
H -1.1122288828657063 0.7557495790546985 2.0330281288187737
H -1.1127971000134955 2.022739937749997 0.7824521200682407
H -2.5659763015729933 1.042494570894725 1.0570348317712068
H -2.5663000428506146 0.39373744021199153 -1.4308187440512106
H -1.1132897994683726 -0.3337901953903354 -2.142863010861998
H -1.1129084997958734 1.3827759277359708 -1.6707351954799168
*
