  9
        -13.83330262
 C         -1.4465740234       -0.0983880751        0.0000030816
 C          0.0531514849        0.0734417777       -0.0000544106
 O          0.6027193371        1.1716307893        0.0000017370
 N          0.7500455952       -1.0709473027       -0.0000011965
 H         -1.7537685267       -0.6532602161       -0.8821613188
 H         -1.7542330577       -0.6454847250        0.8868983740
 H         -1.9213568629        0.8779787372       -0.0043038665
 H          1.7562037705       -1.0343266555        0.0003306732
 H          0.2872545966       -1.9630951660       -0.0001631640
  9
        -13.83273513
 C         -1.4486795362       -0.0915577185       -0.0000251242
 C          0.0517839259        0.0653663500       -0.0003006200
 O          0.5977321933        1.1666937977       -0.0000106697
 N          0.7580373530       -1.0721811154       -0.0000239250
 H         -1.7481623104       -1.1331346198       -0.0186270002
 H         -1.8493312564        0.3927760829        0.8871317712
 H         -1.8538426807        0.4260454155       -0.8660772667
 H          1.7640584531       -1.0215113801        0.0012819696
 H          0.3108696426       -1.9720149771        0.0006739642
