! wb97x-v def2-tzvp def2/J RIJCOSX DEFGRID2 scfconv7 GCP(DFT/TZ) printgap
%output
    printlevel normal
end
%cpcm
    smd true
    smdsolvent "water"
end
* xyz 0 1
C 2.8678440230290247 0.7205735448129559 -0.23939553807302524
C 1.9982067388258733 -0.464394003303726 0.17186392584187607
C 0.5128840174611531 -0.23561569235224947 0.07941599721983053
C -0.07517920691213963 1.0197149610588656 0.24793315387389758
C -1.45726778833353 1.1433497827078527 0.18155939343517677
N -2.294668803954428 0.11973946964879892 -0.042245785342026054
C -1.724027032991012 -1.084275091749424 -0.20815054802777985
C -0.35555752255787637 -1.3047768689819095 -0.15822809644387423
H 2.636007825824063 1.0447660290913037 -1.2593267567506243
H 3.923872501233125 0.4370446056130111 -0.20589917235400634
H 2.7363983169406096 1.5763417794307026 0.4287037703800371
H 2.2306075081476027 -0.7424706013897734 1.2093404312789346
H 2.2476057276002908 -1.3415645612944702 -0.43489225192107883
H 0.5255626285028857 1.903866762332815 0.4309442085023308
H -1.916397213390178 2.1207130166277235 0.316538041035359
H -2.399174814943896 -1.9163125974664494 -0.39773129503003907
H 0.03347883474114666 -2.3078769467399507 -0.30697593461182515
*
