! pbe def2-sv(p) def2/J RI DEFGRID1 loosescf d4 GCP(DFT/SV(P)) printgap
%output
    printlevel normal
end
* xyz 0 1
C -2.2071886703 -0.9821031188 -0.4021355212
C -1.1739064678 -0.2011241421 0.4276544671
H -1.6671556577 0.2038486238 1.320615829
C -0.5991046303 0.9644046421 -0.4006489262
H -0.4691382324 0.6396797353 -1.440586499
C 0.7752596016 1.3273609527 0.1801150998
H 0.6973149163 1.4604453595 1.2663616983
C 1.7258261629 0.1498304957 -0.0942465043
H 2.0011609775 0.1497449975 -1.1606607045
C 1.0111402394 -1.1885926883 0.1877904929
H 1.6742746888 -1.790024218 0.8258233697
O -0.1491665958 -1.0390316965 0.961156381
O 0.7645454013 -1.8104207803 -1.0341689214
O 2.8768689196 0.2075850525 0.7075472207
O 1.2841583054 2.539017491 -0.3117746947
O -1.4805375585 2.0513636783 -0.4611318308
O -2.8025841331 -2.0457833263 0.2946943742
H -1.7180159746 -1.4297511417 -1.2690550221
H -2.9602944318 -0.2631577585 -0.7521033567
H 0.4741640506 -2.7236890504 -0.8860617066
H 3.2759376159 1.0872417908 0.6167501013
H 1.1790930001 2.5763964849 -1.2736243523
H -1.5001090029 2.5122850368 0.3908483982
H -3.2408489414 -1.7104752566 1.0894432234
*
