! pbe def2-sv(p) def2/J RI DEFGRID1 loosescf d4 GCP(DFT/SV(P)) printgap
%output
    printlevel normal
end
* xyz 0 1
C -1.73688921 -1.346040133 -0.5223640888
C -1.1383971044 -0.4815243801 0.6045881193
H -1.8551723441 -0.406982149 1.4304720272
C -0.8491154154 0.9571463505 0.1330975687
H -1.1505918623 1.063498186 -0.9202325055
C 0.6504615399 1.2585355961 0.2235533401
H 0.937940484 1.3449577805 1.2835080392
C 1.4272754617 0.0952701103 -0.3981702107
H 1.0609753306 -0.0728245535 -1.4206682574
C 1.1693322188 -1.1741542263 0.434579742
H 1.9667442717 -1.2637602435 1.1893277205
O -0.0087602381 -1.1057282223 1.1998297273
O 1.1815894841 -2.2649389828 -0.4349485778
O 2.7880797805 0.4444499277 -0.4097715486
O 0.8938151034 2.4668892711 -0.4490093993
O -1.6004275402 1.8365507472 0.9339036141
O -2.8509848219 -0.7473448457 -1.1293514841
H -1.9903353259 -2.3301121725 -0.1090063664
H -0.9988826915 -1.4830426463 -1.3158438341
H 1.1248345691 -3.0942156336 0.0637623924
H 3.2918109805 -0.206929551 -0.9178337069
H 1.8529229994 2.5716660931 -0.5449198591
H -1.3982407557 2.7454144705 0.6664401367
H -3.5558716415 -0.6345807569 -0.4757992097
*
