! pbe def2-sv(p) def2/J RI DEFGRID1 loosescf d4 GCP(DFT/SV(P)) printgap
%output
    printlevel normal
end
* xyz 0 1
C 2.0144832962 0.7728236003 -0.0003629882
C 0.7847830721 -0.0912495486 -0.0001718395
O 0.8416383266 -1.3106705168 0.001195171
C -0.4954547601 0.6437266781 -0.0018969926
C -1.6673233768 0.027916385 -0.7401254795
C -1.6667349112 0.0324628045 0.7411334528
H 2.0060038095 1.4117649227 0.8793992143
H 2.9081911813 0.1552572619 0.0009843078
H 2.00743879 1.4098113202 -0.8815519258
H -0.4099319481 1.720783679 -0.0048887573
H -2.3237304227 0.6987273224 -1.2706427546
H -1.4745999448 -0.9089719234 -1.2407966422
H -2.3226475177 0.7067126625 1.2679065034
H -1.473814992 -0.9012607298 1.2475853984
*
