! wb97x-v def2-tzvp def2/J RIJCOSX DEFGRID2 scfconv7 GCP(DFT/TZ) printgap
%output
    printlevel normal
end
%cpcm
    smd true
    smdsolvent "water"
end
* xyz 0 1
C 0.5208908080326198 0.872175769017753 -1.2595616844495057
C 0.42316747430134194 0.013975885835769692 2.4926533318995064e-05
C 0.5198963167276088 0.876446576550863 1.2567651754896585
C 1.5126259112898157 -1.0512468559199124 0.0022702091004963136
O -0.81550199578413 -0.7610389535555239 0.0007565993983459415
C -2.0276192036867187 -0.006635915165681424 2.4546205714736602e-05
H 1.516837202725749 1.3211999576274565 -1.31952158581336
H 0.3651107396140073 0.2602909700700632 -2.154161760383846
H -0.20925538080909317 1.686295525068193 -1.256049460505879
H 0.36411663675532197 0.2675452492202542 2.1533941776163017
H -0.21067573140005497 1.6901562477636798 1.2501068480453674
H 1.515593173021725 1.3261655387381195 1.3155984916308028
H 1.4309710165653085 -1.6826866978686177 0.8925074613944785
H 1.4316100526405373 -1.6859012770287953 -0.885744608868172
H 2.499369688101284 -0.5803073177946773 0.0017642903327921436
H -2.1250605046168833 0.6220945816765578 -0.8939679037616185
H -2.1261410837015933 0.6220435615722311 0.8939354748947661
H -2.8417506809908266 -0.7359629628277672 -0.0004829969173278326
*
