! wb97x-v def2-tzvp def2/J RIJCOSX DEFGRID2 scfconv7 GCP(DFT/TZ) printgap
%output
    printlevel normal
end
%cpcm
    smd true
    smdsolvent "water"
end
* xyz 0 1
C -1.943942719839923 0.4722171426053739 -0.0954870544205676
C -0.8877125638759004 -0.5821745454135286 0.2121969029691222
C 0.5631531518434411 -0.15846238932656523 0.16660734491282034
O 1.4687523592622787 -1.0048917744323254 0.2920834028149322
N 0.8342138072226648 1.1470678744608984 0.005646320921919283
H -1.9210024454546983 1.2958321972888858 0.6261586544731168
H -1.8190957079149694 0.8852596524508826 -1.1020713482630986
H -2.9394376522498904 0.02196841853045358 -0.04399111132692819
H -0.974455414091699 -1.4288541182730647 -0.47786091324238944
H -1.0433168686450371 -0.9980619816578072 1.2155214720134166
H 0.10460360289353016 1.8322825632884128 -0.10498238693028923
H 1.7958251341672806 1.4525742335554261 -0.01926082875413063
*
