! r2scan-3c def2/J RI DEFGRID2 scfconv6 printgap
%output
    printlevel normal
end
* xyz 0 1
C 1.4350903919 0.0002075638 -0.5820308352
C 0.969169572 1.1783480381 0.2136480672
C -0.3295646685 1.4920846122 0.2930928228
C -1.3999752008 0.6755013214 -0.2072750678
C -1.3998204775 -0.6758308307 -0.2071938859
C -0.3292333797 -1.4921673796 0.2932103874
C 0.9694743803 -1.178145349 0.2135030853
H 2.515270735 0.0003429711 -0.7071209319
H 0.9497806962 0.0001061798 -1.5620339088
H 1.7121968283 1.7770613711 0.7206527111
H -0.6254262147 2.4097922754 0.7849185111
H -2.3144985042 1.1915628604 -0.4716017036
H -2.3139756239 -1.1920543084 -0.4718431548
H -0.624868298 -2.4099532389 0.7850188165
H 1.7127143703 -1.7768339948 0.7199770419
*
