! pbe def2-sv(p) def2/J RI DEFGRID1 loosescf d4 GCP(DFT/SV(P)) printgap
%output
    printlevel normal
end
* xyz 0 1
C -3.0511240783 0.077369174 0.3046052388
C -1.9977979467 -0.2541648376 -0.751197068
H -2.5148570546 -0.4153585637 -1.7031887214
C -1.2053400147 -1.5178050863 -0.4108671313
C -0.3075730078 -1.3235548333 0.8061390613
C 0.6655806747 -0.1444057741 0.6384929817
H 1.1521139986 0.055048943 1.600843553
C -0.1534071491 1.0753369919 0.284920738
O -0.1316011867 2.0901042258 0.9571314331
C -1.0304186407 0.9288201199 -0.9270220763
C 1.779155508 -0.3870352289 -0.4042117795
C 2.5974987014 0.8904802387 -0.59328876
C 2.7026421558 -1.5246976407 0.0264043215
H -3.6902826822 -0.7824808524 0.4890771302
H -2.5870015759 0.3760527769 1.2419684612
H -3.6746936545 0.9019027324 -0.0329810066
H -1.900052396 -2.335891446 -0.2134013356
H -0.5993081311 -1.8027565533 -1.2720083663
H -0.9249803363 -1.1326869438 1.6859382437
H 0.2560887654 -2.2353642871 1.0007036648
H -1.5835599038 1.8566943038 -1.0826435827
H -0.3954247489 0.7481698982 -1.7951530105
H 1.3246319987 -0.6538913455 -1.3617816453
H 1.9718351787 1.7153438668 -0.9293516318
H 3.3828049138 0.732804593 -1.3285624055
H 3.0597496565 1.1852917483 0.3466328591
H 3.5252033455 -1.6154169245 -0.6786540766
H 2.178611109 -2.4753433925 0.0541420951
H 3.1174985553 -1.3257645572 1.011906532
*
