! r2scan-3c def2/J RI DEFGRID2 scfconv6 printgap
%output
    printlevel normal
end
%cpcm
    smd true
    smdsolvent "water"
end
* xyz 0 1
C -2.6327240289 0.6060545663 0.7598941452
C -1.8479771513 0.5831526273 -0.5533768623
C -0.3811905994 0.3886646413 -0.2943208731
C 0.4874892957 1.4651145323 -0.2190406469
C 1.8345097389 1.2895869892 0.0507049096
C 2.3302327801 0.0142963162 0.2495172668
C 1.4813886197 -1.0762244802 0.1794273955
C 0.1300286328 -0.8978100764 -0.0867435253
O -0.7304719134 -1.9528372304 -0.1583429569
H -3.690952164 0.7606178847 0.5654322509
H -2.2731072693 1.4075299523 1.4015020609
H -2.5098257375 -0.3387224343 1.2836652874
H -2.0030441078 1.5221043735 -1.0873270362
H -2.2152732116 -0.2373399578 -1.1724742934
H 0.097229751 2.4598594596 -0.3779710027
H 2.4917536394 2.1438548641 0.103535244
H 3.3781972776 -0.1374775388 0.4590985355
H 1.8698271699 -2.0731070351 0.3341407998
H -0.2538384357 -2.7847266445 -0.0216527346
*
