! r2scan-3c def2/J RI DEFGRID2 scfconv6 printgap
%output
    printlevel normal
end
%cpcm
    smd true
    smdsolvent "water"
end
* xyz 0 1
C -2.6947704482 -0.9668869733 0.0011134034
S -1.8220256791 0.6279702526 -0.0005037443
C -0.1072885451 0.1892888065 -5.27147e-05
C 0.7961495195 1.2492241409 0.0001935776
C 2.1540233953 1.0015692942 0.0004847983
C 2.6247969651 -0.3028256462 0.0004132982
C 1.7248659541 -1.3536009872 -0.0003719538
C 0.3603687983 -1.1166292342 -0.000649832
H -2.4441170464 -1.5206158418 0.900234137
H -2.4452590186 -1.5219112004 -0.8975137545
H -3.7498828812 -0.7138101299 0.0015899176
H 0.4175802404 2.2604660903 -7.47548e-05
H 2.8467699627 1.8292722259 0.0002542892
H 3.6861674859 -0.4967493985 0.0005649815
H 2.0817054043 -2.3725970356 -0.0009473189
H -0.320577133 -1.9518683889 -0.0015543806
*
