! wb97x-v def2-tzvp def2/J RIJCOSX DEFGRID2 scfconv7 GCP(DFT/TZ) printgap
%output
    printlevel normal
end
%cpcm
    smd true
    smdsolvent "water"
end
* xyz 0 1
C -2.3893989888770557 -0.18165517198440762 0.0896799464639417
C -0.9166191258959211 -0.2863891750946995 0.16579021594812135
C -0.050043793317303346 0.5967873779776283 -0.36188059835915687
C 1.3946273502914983 0.4405094482605845 -0.2535822282002176
O 1.9704505429410055 -0.4893781909357733 0.31303283425907275
H -2.8168469810254213 -0.16707881639916822 1.1007803351764858
H -2.804645544419488 -1.0762968750900774 -0.39241215136492474
H -2.7170026788114123 0.7071573482033982 -0.45408518768241984
H -0.5140590254404824 -1.150900960966185 0.6940377102666081
H -0.4064213009421346 1.4738647484236813 -0.8974006510568482
H 1.9933104178267824 1.2390764285465947 -0.731606398288715
*
