! pbe def2-sv(p) def2/J RI DEFGRID1 loosescf d4 GCP(DFT/SV(P)) printgap
%output
    printlevel normal
end
* xyz 0 1
C 3.5407525859 0.5200456135 0.0123096233
C 2.2000540624 0.0656495995 -0.5615100306
H 2.3856189854 -0.4007035824 -1.5347454244
C 1.2422159677 1.2532528275 -0.7591675871
C 0.2708930562 1.371367998 0.4100679945
C -0.7033527053 0.1824803462 0.4490858027
H -1.0812427328 0.0804211301 1.4735896073
C 0.059398248 -1.1182335955 0.0949787641
H -0.0830773828 -1.3474962867 -0.967655563
C 1.5603961112 -0.9778426754 0.3612531646
O -0.4614082391 -2.2530487883 0.765207077
C -1.9306700188 0.3694336675 -0.4688558838
C -2.9050264913 -0.7991048178 -0.3087374606
C -2.6882327207 1.6690392837 -0.1857694395
H 3.3928294484 1.0508376343 0.9501233442
H 4.1839933808 -0.3367684103 0.199325842
H 4.0478441686 1.1846387665 -0.6830647267
H 1.8172794794 2.1751040295 -0.8571240222
H 0.6716566388 1.124462275 -1.6800058116
H 0.8391149753 1.4096366928 1.340738112
H -0.282051029 2.3053052348 0.3403437504
H 1.7133577469 -0.6983588885 1.405856274
H 2.0320643374 -1.9505717685 0.2073309817
H -0.3053505575 -2.1515308655 1.7143388342
H -1.5833933828 0.3900580469 -1.5080240877
H -3.3428887509 -0.7849102515 0.6873369393
H -2.4084973219 -1.7548276463 -0.4457271239
H -3.7088992114 -0.721246758 -1.0373865483
H -3.6414022546 1.6553617179 -0.7091733075
H -2.1401516604 2.5431028317 -0.5255243919
H -2.8858036598 1.7701717281 0.8791807445
*
