! pbe def2-sv(p) def2/J RI DEFGRID1 loosescf d4 GCP(DFT/SV(P)) printgap
%output
    printlevel normal
end
* xyz 0 1
C 3.7469241786 0.207984989 0.0696140637
C 2.2886551519 0.1738586031 -0.3778471127
H 2.2564446997 0.0098275191 -1.4611641021
C 1.5726494553 1.482079968 -0.0600511532
C 0.1275888824 1.4052636552 -0.5325219409
C -0.6773216752 0.2827796991 0.1401573782
H -0.7005214944 0.4503631529 1.2226693431
C 0.0566065643 -1.0589193212 -0.0749521538
H -0.0233273529 -1.3489291114 -1.1347468613
C 1.5377340245 -0.9560086315 0.3134087372
O -0.4291878305 -2.1036656409 0.7542823204
C -2.1280252587 0.3599535804 -0.402776238
C -2.95217184 -0.9247113595 -0.309339438
C -2.8935945908 1.4654526693 0.3294714846
H 4.2415108889 -0.7308697694 -0.1669619598
H 4.2783336793 1.0143949959 -0.4299917175
H 3.809127601 0.367520431 1.1436516958
H 1.6032655528 1.6604544807 1.0167340643
H 2.0744638204 2.3159277583 -0.5549515552
H -0.3618757897 2.3616355155 -0.3475450122
H 0.1228444412 1.2343983309 -1.6126181454
H 1.5764504384 -0.8147395148 1.3960109928
H 2.0032359737 -1.9193449162 0.0954612598
H -1.2935252986 -2.4018479923 0.4471864201
H -2.0659036504 0.6272767595 -1.4644529372
H -3.9624482328 -0.7226950966 -0.6609775945
H -3.0218204148 -1.2662944806 0.7206897984
H -2.5425777833 -1.7078751033 -0.9430929487
H -3.8767329768 1.6002128956 -0.11546803
H -2.3706841143 2.4161236049 0.2830773908
H -3.0254150858 1.1979140158 1.3758212984
*
