! wb97x-v def2-tzvp def2/J RIJCOSX DEFGRID2 scfconv7 GCP(DFT/TZ) printgap
%output
    printlevel normal
end
%cpcm
    smd true
    smdsolvent "water"
end
* xyz 0 1
C 2.8776365438723333 -0.7482412286496087 0.11780403158758573
C 1.9992335932847065 0.4752854275958168 -0.10491719346239442
C 0.5129653193686889 0.23719437322145065 -0.04870162765377074
C -0.37144375710827016 1.3039758106791233 -0.24488148095973236
C -1.7379207966190766 1.0840564871270955 -0.19266312391767532
N -2.2947249475697333 -0.11743090452089548 0.04024302654504795
C -1.444178534593559 -1.135257783539584 0.22742522480292127
C -0.05912744013557509 -1.011590435789263 0.19316088662559264
H 3.932181282086941 -0.46519353963461313 0.05672519189908517
H 2.6944244228733814 -1.5187270739177532 -0.6380560587296796
H 2.707276828105582 -1.1920163366990024 1.103947500294738
H 2.228983586188813 0.9261084502913572 -1.0788688154928077
H 2.241842522401542 1.2476112849698568 0.6362565772323563
H 0.008299888427885324 2.3034319539906525 -0.4376148811569442
H -2.4266161515265168 1.9124786689170017 -0.3451574688159149
H -1.891737918267341 -2.1091459105827326 0.41617499802215696
H 0.5541948742282503 -1.8907366231069689 0.3555532758157999
*
