! pbe def2-sv(p) def2/J RI DEFGRID1 loosescf d4 GCP(DFT/SV(P)) printgap
%output
    printlevel normal
end
* xyz 0 1
C -2.5347492251 -0.9811264676 0.2946733111
C -1.1116339616 -0.4920390898 0.6040181059
H -0.9761133722 -0.4507420391 1.695971919
C -0.8348352492 0.9049491944 0.0177691165
H -1.0338253916 0.8808493865 -1.0618961157
C 0.6406173176 1.2798953358 0.2326993475
H 0.8057721259 1.3928694707 1.3179691545
C 1.5574232697 0.1714648818 -0.302528893
H 1.4366632495 0.1136878431 -1.3897585558
C 1.1368088427 -1.1751890951 0.3316096744
H 1.2776726465 -1.123223007 1.4251468686
O -0.2206454824 -1.4401714704 0.0430109422
O 1.8955016679 -2.2400961873 -0.0943425389
O 2.9171746047 0.4327302663 -0.1001555035
O 0.9546372266 2.4798450326 -0.4259811524
O -1.6002555095 1.9046948876 0.6481941384
O -2.8382860662 -0.9297510325 -1.0745278305
H -3.2574765107 -0.3386964403 0.79947058
H -2.6341390662 -2.0013367951 0.681574184
H 1.8144422282 -2.3488708169 -1.0548806293
H 3.0944877663 0.5931341179 0.8378165841
H 0.3229364269 3.1573414843 -0.1390823512
H -2.5095579503 1.8749392687 0.3207876394
H -2.270140901 -1.5596004625 -1.5396970742
*
