! pbe def2-sv(p) def2/J RI DEFGRID1 loosescf d4 GCP(DFT/SV(P)) printgap
%output
    printlevel normal
end
* xyz 0 1
C -2.0395710426 -1.4091453654 -0.1116634283
C -1.0062560958 -0.5279880387 0.6045174606
H -1.4447591867 -0.1733937548 1.5457646747
C -0.6530820454 0.6986403927 -0.2487828363
H -0.5638188969 0.408215389 -1.3071060335
C 0.700156746 1.2529802594 0.2126460815
H 0.6430056297 1.4299616469 1.3006140242
C 1.792013052 0.2154201648 -0.0754964218
H 2.1079729077 0.3311494929 -1.1171637812
C 1.2342054051 -1.2212891519 0.0929425437
H 2.0067598656 -1.8242660874 0.5890709407
O 0.1412393845 -1.2809023177 0.9810352708
O 0.9179305824 -1.7295888569 -1.1641918374
O 2.9470009768 0.405704177 0.6937823683
O 1.0204742962 2.4487606567 -0.4471669988
O -1.6075182801 1.7207073855 -0.1012031255
O -3.2085677767 -0.6391264899 -0.2872960555
H -2.233000905 -2.2920456916 0.5087991782
H -1.6310719826 -1.7246136672 -1.0792364848
H 0.8778806428 -2.6981309014 -1.1376152786
H 2.7126971748 0.4897727096 1.6301409688
H 0.2300891934 3.012258391 -0.4390976945
H -2.4854847414 1.343407359 -0.2751531274
H -3.8899938313 -1.1804094141 -0.709865253
*
