! wb97x-v def2-tzvp def2/J RIJCOSX DEFGRID2 scfconv7 GCP(DFT/TZ) printgap
%output
    printlevel normal
end
%cpcm
    smd true
    smdsolvent "water"
end
* xyz 0 1
C -3.4695856680784183 0.6011419002018086 0.25034745358744187
O -2.0453081291816404 0.764990749748319 0.027728165265617666
C -1.3368026445263563 -0.371272608546014 -0.09901076657377009
O -1.851606446368387 -1.4759795856555538 -0.017870859162863198
C 0.12883954375365564 -0.1337758119737979 -0.3821999151374108
C 0.9779507388171006 -1.246732937010489 0.2522118779482875
C 2.457648722261851 -1.0715950831497731 -0.08872489424824946
C 2.964876872735469 0.3095149483052288 0.3254809517031076
C 2.1227240419752818 1.40964685574753 -0.31957746001641296
C 0.6387178858728785 1.2554703791107773 0.022166156816973523
H -3.645912958084367 0.042421660274283485 1.1723834148091064
H -3.926046267571464 0.08280526354676365 -0.5963240430776582
H -3.8655673520019755 1.6124504467104643 0.33647385794474466
H 0.21359437019032082 -0.22533253175298956 -1.4779983586029857
H 0.8443770000437976 -1.2088103582792467 1.3421687770000097
H 0.6226858872773942 -2.2244548752106614 -0.08564398411244369
H 3.042259726489482 -1.8580585963921403 0.40198388285869757
H 2.5944819071059215 -1.1977460216045792 -1.1716746258399822
H 2.907027889027184 0.4032832519923783 1.4189315373670208
H 4.018942280866829 0.4262100114670633 0.0482697240024243
H 2.471748191588807 2.3976850845623106 0.0012555345308755685
H 2.245539687931916 1.3653901672704272 -1.4107603808141849
H 0.4952330435927843 1.3862032279740257 1.1030829014958279
H 0.058572848771603715 2.0346326270756605 -0.48007825176730656
*
