! pbe def2-sv(p) def2/J RI DEFGRID1 loosescf d4 GCP(DFT/SV(P)) printgap
%output
    printlevel normal
end
* xyz 0 1
C -2.514012964 -0.9987799185 0.3460786705
C -1.0687290638 -0.5246287949 0.5954905087
H -0.9017501292 -0.4829605873 1.6840926929
C -0.8021655771 0.8686423321 -0.0137033065
H -0.9545541875 0.8129620965 -1.0976343019
C 0.6594258864 1.2563922063 0.2382470602
H 0.8346752493 1.3419422516 1.3250942274
C 1.5771206162 0.1528539754 -0.3017052662
H 1.4685688475 0.1084606154 -1.3965394636
C 1.166037004 -1.210306636 0.2932840639
H 1.3595335208 -1.1878091778 1.3816115908
O -0.1862371722 -1.4810519067 0.0364305984
O 1.929196132 -2.2395664322 -0.2299796059
O 2.8988552267 0.4778850464 0.0510844987
O 0.9158742162 2.488200867 -0.3851490836
O -1.7192460262 1.8170291114 0.4601892723
O -2.9966694836 -0.7305350058 -0.9426306172
H -3.1614210293 -0.5458856919 1.1036833216
H -2.5290365705 -2.084815185 0.4565698616
H 1.4968027786 -2.5743984545 -1.0315548209
H 3.4747217017 -0.2746190789 -0.1521373592
H 1.8669835923 2.6664567533 -0.331912163
H -1.4307809381 2.1661703567 1.3150085566
H -3.1798262544 0.2169610473 -1.018721285
*
