! pbe def2-sv(p) def2/J RI DEFGRID1 loosescf d4 GCP(DFT/SV(P)) printgap
%output
    printlevel normal
end
* xyz 0 1
C -2.5399050729 -0.9379657198 0.3327948051
C -1.110663087 -0.4584393831 0.6262693111
H -0.9697033275 -0.3774690646 1.7149099398
C -0.8283110847 0.9213402386 -0.002383701
H -1.0470223 0.8634529566 -1.0767908784
C 0.6553367326 1.2955197525 0.1801644038
H 0.8439889506 1.4797626823 1.2432116588
C 1.5591309295 0.1487691328 -0.2953817878
H 1.4588274392 0.0333564512 -1.386810293
C 1.1190705272 -1.176974734 0.3488942629
H 1.2834861802 -1.1062983512 1.4447408532
O -0.2387387316 -1.4425240113 0.0994736749
O 1.8717680705 -2.1893568121 -0.2125824706
O 2.884301563 0.4504270537 0.0502392355
O 0.9669071116 2.506882994 -0.4500047634
O -1.602788508 1.9171898721 0.6209066279
O -2.8207407805 -0.9724454951 -1.0420012925
H -3.2516019637 -0.2453253889 0.7830767863
H -2.6701157726 -1.9283262081 0.7835436468
H 1.5273225516 -3.052768044 0.0645870332
H 3.4558701673 -0.2804781963 -0.2310186612
H 0.8689855648 2.4169484388 -1.409876669
H -2.4524742268 2.0068328271 0.1685279018
H -2.2363833426 -1.6226871149 -1.4575993143
*
