! r2scan-3c def2/J RI DEFGRID2 scfconv6 printgap
%output
    printlevel normal
end
* xyz 0 1
C -1.8885696994 -1.2389699352 -0.0090572522
C -1.5166287349 0.2370457401 0.0079038514
C -0.0341062157 0.5055460749 0.0055762077
O 0.4468120104 1.6230064597 0.0026686543
O 0.6959146954 -0.5994440918 -0.0005980786
C 2.1194879596 -0.4742469536 -0.0052563795
H -2.9697257703 -1.3424672256 -0.0046215171
H -1.4938217879 -1.7225721909 -0.8979742139
H -1.4842747907 -1.7452971632 0.8627533673
H -1.9249312359 0.7308075597 0.8926695947
H -1.932479113 0.7538362042 -0.859958757
H 2.4798995122 -0.4120488526 1.0217334366
H 2.4141693802 0.4252926696 -0.5472833606
H 2.4993379377 -1.3688453781 -0.4902525945
*
