  13
        -28.06468866
 C         -1.8262218476       -1.3428079302        0.0000471467
 C         -0.4960590249       -1.7049666295        0.0001459815
 C          0.4924309916       -0.7315281716        0.0001550340
 C          0.1350698532        0.6093226997        0.0000371242
 C         -1.1980598677        0.9816006789        0.0000500918
 C         -2.1904448261        0.0044663743        0.0000386832
 O         -3.5005267305        0.3090395629       -0.0001505382
 Cl         1.3593333751        1.8379853427        0.0000178280
 Cl         2.1673506865       -1.1939647614       -0.0001003774
 H         -2.6027429267       -2.0892457820       -0.0000938091
 H         -0.2125759909       -2.7440744923        0.0000456191
 H         -1.4496665583        2.0301455224       -0.0001258616
 H         -3.6431926686        1.2688895650       -0.0001818091
  13
        -28.06454861
 C         -1.8162702757       -1.3585481804       -0.0003899813
 C         -0.4797801854       -1.7084216218        0.0005065215
 C          0.4993477833       -0.7285798832        0.0000865332
 C          0.1296396552        0.6111703680        0.0002581674
 C         -1.2042897389        0.9691884333        0.0007586427
 C         -2.1908815302       -0.0165973272        0.0006044354
 O         -3.4754308540        0.3856101937       -0.0005237946
 Cl         1.3426187552        1.8495254241       -0.0003645804
 Cl         2.1776416727       -1.1752239298        0.0000274618
 H         -2.5651024506       -2.1345423223       -0.0011436974
 H         -0.1867748770       -2.7450676976        0.0032447617
 H         -1.4953796975        2.0061642441       -0.0013325977
 H         -4.0841737361       -0.3708755076       -0.0023351917
