! wb97x-v def2-tzvp def2/J RIJCOSX DEFGRID2 scfconv7 GCP(DFT/TZ) printgap
%output
    printlevel normal
end
* xyz 0 1
C 1.8438168428600936 0.9542341847644323 -0.24834993934119337
C 0.9728443063281482 -0.11259054795409724 0.4116603715779186
C -0.37896214843532444 -0.3059919261816409 -0.27063645117535484
H -0.21458194238405756 -0.613612324723013 -1.3109119996912661
C -1.2545448496759095 0.9357185604331589 -0.24028145356636924
O -1.0791037331785769 -1.4257397603479214 0.33059100162579175
H 1.4165122457177708 1.9550080330758999 -0.13485483438710447
H 1.9606088863904594 0.7568864087459055 -1.3201157468999873
H 2.8424073006518897 0.9686857216451026 0.19859353909908944
H 0.7955188553336474 0.1448371523198154 1.4653351907602739
H 1.4974123478029877 -1.0754288367800644 0.3985480701120399
H -1.4083806724044703 1.268078787396543 0.7938319848149115
H -0.7957053949927764 1.7572517662360205 -0.7986158010584318
H -2.230006941949522 0.725947161998081 -0.6894797374343262
H -1.2677864266642351 -1.175828493396149 1.2458692169714785
*
