! r2scan-3c def2/J RI DEFGRID2 scfconv6 printgap
%output
    printlevel normal
end
%cpcm
    smd true
    smdsolvent "water"
end
* xyz 0 1
C -2.495098133 0.0678003966 0.0008638709
C -1.2280994074 -0.7762083234 -0.0004272446
C 0.0181615388 0.0694271414 2.49983e-05
O 0.0531718741 1.2807169042 -0.0007363793
O 1.1147985291 -0.6876667469 -0.0004993629
C 2.3782135943 -0.0177457251 0.000783691
H -2.5250402148 0.7023737087 0.8827631865
H -2.5199831733 0.7117530953 -0.8743980378
H -3.3715349207 -0.5725824371 -0.0049202919
H -1.1873641396 -1.4207088731 -0.8802490678
H -1.1869756083 -1.4230485211 0.8776184442
H 2.4448934781 0.6558500329 -0.8543856203
H 3.1250503801 -0.8027893694 -0.0598185092
H 2.4919069845 0.5610819054 0.9181659542
*
