! pbe def2-sv(p) def2/J RI DEFGRID1 loosescf d4 GCP(DFT/SV(P)) printgap
%output
    printlevel normal
end
* xyz 0 1
C -2.3180958927 1.1233486776 -0.1118520379
C -1.4293523082 -0.0876467289 -0.1586198384
O -1.59698819 -0.9635007937 -0.9848763502
C -0.3531862321 -0.1574494684 0.9117414919
C 0.4903816906 1.122749699 0.9648346233
C 1.2528613291 1.347053976 -0.3457869839
C 1.6675406442 0.0174050391 -0.9872973538
C 1.8880083994 -1.0403306318 0.0877955519
C 0.5526426057 -1.3897935068 0.7514313068
H -2.5235370133 1.422681301 0.9105677926
H -1.8160623445 1.9446129645 -0.6193569554
H -3.2446970552 0.9149960528 -0.6405024212
H -0.9080329351 -0.2405584998 1.8536133002
H -0.1316224312 1.9880056594 1.1886283929
H 1.200032179 1.0097034608 1.7851800372
H 0.6384039301 1.9080101978 -1.0522487206
H 2.1389787439 1.9488384954 -0.136629259
H 0.8841827705 -0.3346075658 -1.6622760363
H 2.573308592 0.1554053147 -1.5795727317
H 2.3208375017 -1.9403944109 -0.3509975345
H 2.5948274119 -0.660703846 0.8276938856
H 0.0238427251 -2.1183755061 0.1320788703
H 0.7360854133 -1.8492841997 1.7232586687
*
