! pbe def2-sv(p) def2/J RI DEFGRID1 loosescf d4 GCP(DFT/SV(P)) printgap
%output
    printlevel normal
end
* xyz 0 1
C -2.4879129493 -0.8176742958 -0.0731596209
C -1.1201883081 -0.5590464252 0.5737077053
H -1.1268258376 -0.9447020324 1.6067408665
C -0.7629408448 0.9470417797 0.6154435092
H -1.6513694893 1.5272729569 0.3339756584
C 0.363601252 1.2597588008 -0.3920507492
H 0.671396239 2.3047491535 -0.2368822579
C 1.5932399068 0.3825648845 -0.0892603219
H 2.2262805139 0.3646412215 -0.9827191713
C 1.1539558488 -1.0722971004 0.2353342613
H 1.2406641419 -1.2268884196 1.3249168703
O -0.1734063657 -1.3009654348 -0.1772598859
O 1.9565726425 -2.0304743625 -0.3506408058
O 2.3818351952 0.9281957333 0.933162898
O -0.0213619651 1.0405439324 -1.7218663943
O -0.2851821687 1.3426396514 1.8821169502
O -2.6251686128 -0.174645886 -1.3122659521
H -3.2814039675 -0.4260849265 0.5656726201
H -2.6107490061 -1.9023160033 -0.1793624216
H 1.7767881467 -2.0589635637 -1.3034794912
H 1.8098424884 1.1333007309 1.6918925746
H -0.7115967988 1.6739935848 -1.9684969986
H -1.0171907086 1.422097725 2.5094947777
H -1.8848949578 -0.4488352347 -1.87563792
*
