! r2scan-3c def2/J RI DEFGRID2 scfconv6 printgap
%output
    printlevel normal
end
%cpcm
    smd true
    smdsolvent "water"
end
* xyz 0 1
N 0.7189574388 -0.0002564599 -0.0410939441
N -0.7076905085 -0.0002393547 0.1332398253
H 0.9897126631 -0.3012191528 -0.9776346995
H 1.0346036025 0.9568087295 0.0837523219
H -0.9853335695 -0.9587801201 0.3207899181
H -1.1955519679 0.3100805598 -0.7073994852
*
