! r2scan-3c def2/J RI DEFGRID2 scfconv6 printgap
%output
    printlevel normal
end
* xyz 0 1
C -2.3872412292 -1.1596398569 -0.3252919926
C -1.0667533935 -0.6268311911 0.24079619
H -1.1089083463 -0.6332362637 1.3414351391
C -0.7814796777 0.8106417031 -0.2222200622
H -0.848395492 0.8476428404 -1.3227956397
C 0.63844492 1.2501663488 0.1786802466
H 0.6697912782 1.3824104144 1.2711047408
C 1.6784314407 0.1959419943 -0.2036616196
H 1.7805168183 0.1962910734 -1.2996614368
C 1.2200223855 -1.2000459943 0.2719463473
H 1.2295001861 -1.2080633572 1.3755341072
O -0.0620181689 -1.5101575909 -0.2148405201
O 2.0922679118 -2.1898893081 -0.140262414
O 2.8982625689 0.5288923443 0.4064417965
O 0.9749079916 2.4530011273 -0.4649925894
O -1.6652532602 1.7403311209 0.3530638435
O -3.4483159425 -0.373360889 0.1637094054
H -2.4858517126 -2.2055503652 -0.0150499864
H -2.3352090121 -1.1186749277 -1.4203039717
H 1.8898772956 -2.4311944582 -1.0584713174
H 3.5354867235 -0.1838106351 0.2406150258
H 0.3153356123 3.1200189753 -0.2209025694
H -2.5653919717 1.3701785077 0.3280128362
H -4.2900192813 -0.7387979835 -0.1443929403
*
