! pbe def2-sv(p) def2/J RI DEFGRID1 loosescf d4 GCP(DFT/SV(P)) printgap
%output
    printlevel normal
end
* xyz 0 1
C -2.4648940618 -0.8543620645 -0.0850106129
C -1.0974629786 -0.5637614034 0.5526421808
H -1.0973195796 -0.9173496172 1.59772568
C -0.7524707209 0.9458185735 0.5541757978
H -1.6259387367 1.5078797928 0.2038638707
C 0.3997036159 1.2228148999 -0.4284450324
H 0.6873612176 2.27942314 -0.3165010003
C 1.6242449086 0.3693262749 -0.0416449682
H 2.3332563288 0.3305733253 -0.8761225564
C 1.1821906796 -1.0879201606 0.2402761449
H 1.2569363058 -1.2685108556 1.3353805814
O -0.1438770442 -1.3254680677 -0.1692669208
O 2.0048271562 -1.9445400099 -0.464020036
O 2.3241638475 0.9316002864 1.0340398505
O -0.0670629329 0.9632069907 -1.7248216242
O -0.3343713109 1.3857667544 1.8270869192
O -2.7422792759 -0.0588239646 -1.2066569765
H -3.2610945824 -0.6487331359 0.6330565747
H -2.4838165763 -1.9195678034 -0.3497830549
H 1.6267540788 -2.8383239372 -0.4564966349
H 1.6876895135 1.1664686881 1.7315610739
H 0.6220354587 1.172817358 -2.370679643
H -1.1008521297 1.5725771848 2.3862955481
H -1.9641143216 -0.0515465264 -1.7868148039
*
