! pbe def2-sv(p) def2/J RI DEFGRID1 loosescf d4 GCP(DFT/SV(P)) printgap
%output
    printlevel normal
end
* xyz 0 1
C -2.5198819235 -0.6532006862 -0.076636007
C -1.1696979843 -0.4517348109 0.6277050658
H -1.2469590999 -0.7775012124 1.6773207388
C -0.7099059028 1.0314758038 0.6493100569
H -1.5730093155 1.6703550539 0.4279121247
C 0.372566985 1.2746197198 -0.40737755
H 0.7624466775 2.2943998301 -0.2796659316
C 1.5667504678 0.3223993837 -0.1511318206
H 2.1112533051 0.2078163995 -1.0961096739
C 1.0817920436 -1.0767303167 0.2908298026
H 1.1686660928 -1.1450536921 1.3972211135
O -0.2596160237 -1.2947041966 -0.0656670406
O 1.8605400221 -2.0330140749 -0.3316375301
O 2.3663725057 0.9131848168 0.8466952309
O -0.1055862402 1.1794615227 -1.7196234805
O -0.2680749581 1.4011547177 1.9357246966
O -2.4087086776 -0.4409020776 -1.465099319
H -3.2437306907 0.0699024406 0.3009985373
H -2.8812006085 -1.6647277015 0.1282931045
H 1.4524128672 -2.9074651573 -0.2308769673
H 3.2381489788 0.4938651397 0.8677963594
H -0.9335693499 0.6545552469 -1.7435458968
H 0.70028278 1.336898063 1.9799362375
H -1.9383483296 -1.1953625588 -1.8511618257
*
