! wb97x-v def2-tzvp def2/J RIJCOSX DEFGRID2 scfconv7 GCP(DFT/TZ) printgap
%output
    printlevel normal
end
%cpcm
    smd true
    smdsolvent "water"
end
* xyz 0 1
C -1.8143790051457993 -0.02013698522800002 -0.9850093502425834
C -0.9614263816471299 0.32831002821768707 0.21653215281468657
H -1.059752731067432 1.3927717722135742 0.468487680235512
C 0.5202589994547865 0.09808455448232432 -0.07121951104917582
F 1.2887248855846534 0.37660604703384154 1.0128601411290612
F 0.7906800783361845 -1.1818387277162352 -0.42155155185900384
F 0.9579733582424875 0.890534317148406 -1.0798146362473557
O -1.353864320906863 -0.49677434105041685 1.3109160387779715
H -1.7328034931501484 -1.0848558650804558 -1.221125061023615
H -1.5134895409490947 0.5641496850774376 -1.8577152264345107
H -2.8570979135842607 0.21189369267634436 -0.7574489506038599
H -1.0216247450678448 -0.10248014626891593 2.1289284300936817
*
