! wb97x-v def2-tzvp def2/J RIJCOSX DEFGRID2 scfconv7 GCP(DFT/TZ) printgap
%output
    printlevel normal
end
* xyz 0 1
C -1.9622539174727793 -0.23529258802791142 0.501739534903154
C -1.174543637776808 -0.1062684236847058 -0.7966271624956297
C 0.12235035888909805 0.6794930122631601 -0.6569695080027804
S 1.4099121257307126 -0.1351999768513237 0.3990526236121292
H -1.4187498998699541 -0.8256649981522256 1.2465468078278463
H -2.167498481616535 0.7505212681848648 0.9342562713984658
H -2.9213868709287474 -0.7318674983515193 0.3260684564413357
H -1.7861964469629952 0.4217471188381397 -1.5406323692576274
H -0.9584040836065679 -1.0979686507241777 -1.2103117422738945
H 0.6088554590270687 0.7955332422955906 -1.6300724893642495
H -0.06352406550086029 1.6806142359164968 -0.25625784767442844
H 0.7789803699883076 0.010797054115033101 1.5778454473137253
*
