! pbe def2-sv(p) def2/J RI DEFGRID1 loosescf d4 GCP(DFT/SV(P)) printgap
%output
    printlevel normal
end
* xyz 0 1
C -2.5067407311 -1.0201590136 0.3687618677
C -1.0618023245 -0.5339285438 0.6033213439
H -0.8840515071 -0.47453065 1.6885655746
C -0.7989823151 0.8429887825 -0.0408786646
H -0.9421799063 0.7342287018 -1.1236235791
C 0.6582296138 1.2580712192 0.2277058673
H 0.8273642456 1.3534810504 1.3075497977
C 1.5889038082 0.1596665613 -0.307348836
H 1.4873888924 0.1033028768 -1.403956155
C 1.1759452978 -1.2055184741 0.2928654573
H 1.3769940555 -1.1767548087 1.3793743145
O -0.1753431988 -1.4893686883 0.0469144333
O 1.9417947842 -2.2321551829 -0.2324456955
O 2.9130131562 0.4640942786 0.0454818123
O 0.9463277609 2.5288404131 -0.2871578
O -1.7288720787 1.8061341561 0.3789631142
O -3.0262784114 -0.6974157481 -0.8930664235
H -3.1425468883 -0.615845451 1.1626302611
H -2.50179129 -2.1101818175 0.4280329617
H 1.5004063384 -2.5798900282 -1.0237956416
H 3.4733265837 -0.3037755857 -0.1478791258
H 0.9011764123 2.51845847 -1.2541367707
H -1.4408796771 2.2112663652 1.2087858025
H -3.2209390649 0.2511464408 -0.9171610542
*
