! wb97x-v def2-tzvp def2/J RIJCOSX DEFGRID2 scfconv7 GCP(DFT/TZ) printgap
%output
    printlevel normal
end
%cpcm
    smd true
    smdsolvent "water"
end
* xyz 0 1
C 0.005210975883287992 1.2487759742289033 0.14081929098254858
C 1.2290229119909102 0.3395112486869822 -0.11548347782233175
C 0.6631293501223681 -1.0452589508809067 0.0698798487856525
C -0.6718052717327008 -1.0396806877059472 0.0698633134371546
C -1.2261381245823648 0.3497701843773025 -0.11550785526971388
H 0.009022613430032985 2.150881236964005 -0.4757523318953995
H 0.006509089820722014 1.5618954482947154 1.1897986321716258
H 1.614563513978163 0.4536843126260058 -1.1388914168463398
H 2.0644005817960576 0.5555090649415044 0.5589173169884932
H 1.2847853940590832 -1.9329802240370928 0.14133652682805142
H -1.3008459941655757 -1.9221847368535585 0.14130188116913397
H -1.6107063180998216 0.4671634352412466 -1.1389161682885727
H -2.059682753164361 0.5727198439548974 0.5588982763528131
*
