! pbe def2-sv(p) def2/J RI DEFGRID1 loosescf d4 GCP(DFT/SV(P)) printgap
%output
    printlevel normal
end
* xyz 0 1
C -2.4337052763 -0.8437363607 0.3087270557
C -0.9756525042 -0.4407294698 0.5689783447
H -0.7405020939 -0.6476598619 1.6234286994
C -0.7375667134 1.0635795534 0.3130843715
H -1.55329827 1.4524047347 -0.3106591388
C 0.587762147 1.2568892752 -0.4599361851
H 0.9130634867 2.2994632117 -0.3731158351
C 1.6750389976 0.357507645 0.1615390049
H 2.6006058595 0.4442605682 -0.4193151918
C 1.2211275716 -1.1311241754 0.1063438579
H 1.3652315115 -1.5725871624 1.106331541
O -0.1440051963 -1.2316250313 -0.2642549516
O 1.9606470656 -1.9030124297 -0.7634822152
O 1.9969210645 0.76158792 1.4678422204
O 0.4277122068 1.0165402952 -1.8333578768
O -0.7005007186 1.6982209742 1.5725025854
O -2.8344614298 -0.5922066892 -1.0131633857
H -3.0783079101 -0.2407516077 0.9508206535
H -2.5566894279 -1.9012906704 0.5636574034
H 1.8423957005 -1.5914272628 -1.6748837479
H 1.1831353747 1.0265045613 1.9333273675
H -0.0262732352 0.1663326304 -1.9424572631
H -0.8554874302 2.6483563375 1.4740207399
H -2.4050570146 -1.2340715859 -1.5954134594
*
