  18
        -26.55508200
 C         -2.7680897586       -0.7620831815        0.0023871112
 O         -1.7973899184        0.2610915812        0.0139665564
 C         -0.4651570734       -0.1003427201       -0.0014278708
 C          0.0020526450       -1.4001590871       -0.0092279984
 C          1.3684906573       -1.6541456379       -0.0082942166
 C          2.2658207201       -0.6056904920        0.0056462224
 C          1.8055508851        0.7001348059        0.0156533820
 C          0.4436767823        0.9797605411        0.0074110368
 N         -0.0311461996        2.2716751751       -0.0612522775
 H         -3.7271977932       -0.2485478430        0.0111261516
 H         -2.6844504657       -1.3993469100        0.8876537888
 H         -2.6880932556       -1.3740816265       -0.9003657968
 H         -0.6856962763       -2.2307946316       -0.0139814274
 H          1.7173708289       -2.6752253916       -0.0155699832
 H          3.3278788128       -0.7986680634        0.0114094679
 H          2.5052232220        1.5224975030        0.0269856728
 H          0.5903645108        2.9868306827        0.2783448975
 H         -0.9984180900        2.3774669716        0.1991478306
