! r2scan-3c def2/J RI DEFGRID2 scfconv6 printgap
%output
    printlevel normal
end
* xyz 0 1
C -2.6604667751 -0.5830032654 -0.7405090253
C -1.8718623657 -0.5204809356 0.5698368743
C -0.4031120287 -0.3229154791 0.3041632441
C 0.4168399597 -1.4464930549 0.2628732307
C 1.7688708261 -1.3495925588 -0.0037630363
C 2.3282329737 -0.1047523839 -0.2359280942
C 1.5239558255 1.0173490272 -0.2010342934
C 0.1593414215 0.9314464772 0.0608223234
C -0.6268446341 2.2116416323 0.073863324
H -2.5454032918 0.3391968638 -1.3045094099
H -3.7176006954 -0.7397955442 -0.5398477159
H -2.297817221 -1.4034782402 -1.3557080772
H -2.0112468576 -1.458824126 1.1103282171
H -2.2620340334 0.2812228618 1.1980380842
H -0.0194227083 -2.4184518378 0.4470606675
H 2.3825745774 -2.2379338297 -0.0287429176
H 3.3838588786 -0.0103351712 -0.4438554074
H 1.9576711992 1.9906415999 -0.3836382721
H -0.473636026 2.7465893001 -0.8620862977
H -1.6900066696 2.0474997987 0.204544162
H -0.2736073988 2.8514064919 0.8820322701
*
