! wb97x-v def2-tzvp def2/J RIJCOSX DEFGRID2 scfconv7 GCP(DFT/TZ) printgap
%output
    printlevel normal
end
* xyz 0 1
C -2.605103274734158 -1.472189946421564 -0.0010188616104640754
O -2.227673859346702 -0.0879314321103713 -0.011576087045349041
C -0.8842135754708329 0.20282218439497007 -0.012076127595717717
C -0.562872644417429 1.5654321256438688 -0.0268249631353267
C 0.7768681363834339 1.9321598526354091 -0.02236657063663125
C 1.7916264994803217 0.9802570267914726 -0.006300357331370184
C 1.4633238822562127 -0.38248604069412817 0.004604578681062524
C 0.11208135470197089 -0.7695092779395941 0.004680917794115242
N 2.458421706161254 -1.3513110445369811 -0.04576051966205396
H -2.24160717603314 -1.972776100625543 0.9035866263421705
H -2.2284542049387825 -1.9900811502155662 -0.8903488894278706
H -3.6956718881355557 -1.4808159499511078 -0.008918036710651429
H -1.3556886546896616 2.3051233574258383 -0.03807726095969973
H 1.038306617594295 2.986159731350961 -0.02901401505602118
H 2.8341927901873274 1.2834305115639968 -0.002610578511753815
H -0.13017278159694343 -1.825834402034555 0.017414053574174596
H 3.355121382738364 -1.0474460946961188 0.306655935232871
H 2.188725941142328 -2.252382915571973 0.3230982899705832
*
