! pbe def2-sv(p) def2/J RI DEFGRID1 loosescf d4 GCP(DFT/SV(P)) printgap
%output
    printlevel normal
end
* xyz 0 1
C 0.4071244437 -1.287039687 5.414e-07
C 1.7584740216 -0.9776341353 6.53139e-05
N 2.2216146939 0.2626116874 -2.82561e-05
C 1.3524920809 1.2615098145 1.64399e-05
C -0.0202834323 1.0736190874 7.27019e-05
C -0.5084652609 -0.2343963664 5.16703e-05
C -1.953567098 -0.4947697025 -5.15662e-05
O -2.8125815014 0.3575645737 2.4657e-06
H 0.0714189132 -2.3116402807 -0.0001936674
H 2.5104526281 -1.754038208 -0.0005068619
H 1.7819751239 2.2533216327 -0.0002858179
H -0.7104972776 1.9023346974 -0.0005672466
H -2.2229918863 -1.5657993486 5.89078e-05
*
