! wb97x-v def2-tzvp def2/J RIJCOSX DEFGRID2 scfconv7 GCP(DFT/TZ) printgap
%output
    printlevel normal
end
%cpcm
    smd true
    smdsolvent "water"
end
* xyz 0 1
C 1.7484713416539768 -0.8626333479583832 0.4204713484359785
C 0.9567069544522504 0.03669364595046841 -0.5304706687352991
C -0.46403217012424647 0.3064963159671338 -0.11857107088613955
O -1.0079566668826145 1.3929633009393105 -0.19537623353711175
O -1.191849251048211 -0.741831881934462 0.3432906127597891
H 1.7268138346714637 -0.47241213843140706 1.4418793041791054
H 1.3742744052918137 -1.8915491644831262 0.43202267921561804
H 2.790157034340258 -0.9041189327460131 0.09306453177980085
H 1.4411454191355497 1.0083932483028137 -0.6459425191217851
H 0.9073476584454431 -0.4221301753732314 -1.5273801159688218
H -0.6603902265048195 -1.5534833769647025 0.35163865833243424
*
