! pbe def2-sv(p) def2/J RI DEFGRID1 loosescf d4 GCP(DFT/SV(P)) printgap
%output
    printlevel normal
end
* xyz 0 1
C -2.1908110689 -0.9996141447 -0.4447083801
C -1.1704577045 -0.2244179412 0.3968953593
H -1.692804608 0.178598119 1.2717900825
C -0.5921828292 0.941265352 -0.4165737478
H -0.4441833612 0.6186146945 -1.4621681213
C 0.7716152499 1.3216007804 0.1721532358
H 0.6660990444 1.4927231389 1.2491431283
C 1.7414680484 0.1572466371 -0.0585768602
H 2.0544967242 0.1525740776 -1.115693395
C 1.0292978535 -1.1883461589 0.2003767862
H 1.6829801401 -1.7839735458 0.853015639
O -0.1523658755 -1.0578002067 0.9438006921
O 0.8241796962 -1.81053482 -1.0308347614
O 2.8640126547 0.2206578135 0.781504726
O 1.2416151635 2.5331013034 -0.3629260263
O -1.4959145197 2.015263549 -0.3844041434
O -2.8745774238 -1.9159186526 0.3778771851
H -1.6687206342 -1.5148236549 -1.2599669933
H -2.8811936102 -0.2572634977 -0.8653840517
H 0.5808902423 -2.7388036584 -0.8922814106
H 3.2606084087 1.1037140117 0.7177602823
H 1.4117196697 2.4296005324 -1.3121650881
H -0.9862210788 2.8434739045 -0.4026765238
H -3.5449208341 -2.3748283072 -0.1480068364
*
