! r2scan-3c def2/J RI DEFGRID2 scfconv6 printgap
%output
    printlevel normal
end
* xyz 0 1
C 1.5808486044 1.3018108058 -5.02723e-05
C 0.1997194755 1.3678510761 2.10921e-05
C -0.5268134913 0.1746086986 2.37362e-05
C 0.1876307258 -1.0294911884 -1.19952e-05
N 1.5039043851 -1.0917780814 4.21822e-05
C 2.1816122763 0.0487100705 6.1702e-06
C -1.9876107673 0.1781935805 1.21322e-05
O -2.6916216814 -0.8082835691 -8.9297e-06
H 2.1824770616 2.1956446904 -6.15515e-05
H -0.3162469257 2.3165379283 -0.0001757292
H -0.3458363605 -1.9706490963 -7.46734e-05
H 3.2574623125 -0.055739061 -0.0002248601
H -2.4390245991 1.1871911267 8.20936e-05
*
