! pbe def2-sv(p) def2/J RI DEFGRID1 loosescf d4 GCP(DFT/SV(P)) printgap
%output
    printlevel normal
end
* xyz 0 1
C -3.2510463109 0.3573877566 -0.0029141304
C -1.7732087087 0.5994258865 0.3265188638
H -1.7180778159 1.0066781117 1.3426052668
C -1.1180946652 1.5689258258 -0.6555342752
C 0.3961492606 1.5312922794 -0.4803450804
C 0.972770449 0.1597106259 -0.8818058494
H 1.2837882422 0.208546998 -1.9293792113
C -0.0965795242 -0.9507873259 -0.7792332053
C -1.0588302528 -0.7340831623 0.349364813
O -1.2857594288 -1.5739980169 1.2006962194
C 2.1959646376 -0.1761862666 -0.0603132915
C 3.4046591162 -0.1414568247 -0.6003053683
C 1.9852284673 -0.5387117103 1.378176985
H -3.3542136973 -0.0590653104 -1.002504201
H -3.6829748091 -0.3415236896 0.7095399742
H -3.7992362064 1.2942436467 0.0433679699
H -1.3808797696 1.3038107872 -1.6805518113
H -1.4905713364 2.5768591005 -0.4685056148
H 0.8679876394 2.3085905945 -1.081327631
H 0.6281514358 1.7425148076 0.5649796752
H -0.6943155937 -0.9433004937 -1.6931240278
H 0.3757588356 -1.9298649043 -0.6900291647
H 4.2894918356 -0.3629724064 -0.0282494782
H 3.5609614668 0.1126561904 -1.6349409707
H 1.4660849165 0.2564784372 1.9112201743
H 1.374840002 -1.436248179 1.4667103796
H 2.9369638009 -0.7186635657 1.8700970624
*
