! pbe def2-sv(p) def2/J RI DEFGRID1 loosescf d4 GCP(DFT/SV(P)) printgap
%output
    printlevel normal
end
* xyz 0 1
C -2.4058801239 -0.7063198807 -0.0116051462
C -0.9779029956 -0.2833892973 0.3485645434
H -0.9398945495 -0.0126101414 1.4139183957
C -0.5132545761 0.9130392051 -0.4978155543
H -0.5122854547 0.6133659754 -1.5522153807
C 0.9216649187 1.3233567525 -0.0950313151
H 0.8668044568 2.1074897596 0.6688237487
C 1.6880847912 0.1377432593 0.5308358162
H 2.7523233182 0.2723350295 0.2945787937
C 1.2112843765 -1.1683973378 -0.1226988585
H 1.7474197187 -2.0320629903 0.3019809066
O -0.1428935614 -1.4248218534 0.1369380792
O 1.4714112592 -1.0555720981 -1.4905209424
O 1.466581032 0.1433351055 1.9164308728
O 1.6321329786 1.8881177082 -1.1630147164
O -1.4154019564 1.984344776 -0.4272653264
O -2.9390232497 -1.6233561215 0.9082421977
H -2.4050922817 -1.127226072 -1.0249966839
H -3.0557148303 0.1698012588 0.0078583733
H 1.2467708257 -1.8831588581 -1.9428947042
H 2.0609705487 -0.4817434204 2.3560679855
H 1.7407124336 1.2184027319 -1.8564154007
H -1.4005854056 2.3686179383 0.4615080707
H -2.3514347348 -2.3914846637 0.9494694792
*
