! wb97x-v def2-tzvp def2/J RIJCOSX DEFGRID2 scfconv7 GCP(DFT/TZ) printgap
%output
    printlevel normal
end
%cpcm
    smd true
    smdsolvent "water"
end
* xyz 0 1
C -1.820456487988583 -1.3637271949676502 3.2216941497408875e-05
C -0.47773458117835443 -1.711868738057404 0.0005868111632268096
C 0.5070250002793816 -0.7292308827772371 0.0005779705631763909
C 0.13204496032512972 0.6153050902356002 -2.2024955806713182e-06
C -1.2078720520753834 0.9784406336395821 -0.0005450481966747755
C -2.182809446450151 -0.017009618521399508 -0.0005020131904776224
O -3.4897232973412042 0.3917450888540201 -0.0010304782184022661
Cl 1.3375411498505085 1.88143692567895 -2.462937996834011e-05
Cl 2.1901013160031746 -1.2049139869250982 0.0012819304090867117
H -2.5846559394883486 -2.134604099938481 7.191030945665603e-05
H -0.18986756124452864 -2.7570116716163473 0.0010586362662077958
H -1.4978720942350108 2.022535917495042 -0.001056506385641624
H -4.0645564697887755 -0.387295178599325 -0.0010519200567216593
*
