! pbe def2-sv(p) def2/J RI DEFGRID1 loosescf d4 GCP(DFT/SV(P)) printgap
%output
    printlevel normal
end
* xyz 0 1
C -2.2643279337 -0.6695734963 -0.8317864631
C -1.1176725236 -0.5817676123 0.175716735
H -1.4392773962 -1.0411571352 1.1255502907
C -0.7280009729 0.8849924092 0.4606891455
H -1.578631697 1.523342244 0.1964866442
C 0.4773687832 1.2809304954 -0.4047213314
H 0.759402539 2.3108488166 -0.1370341177
C 1.6782273894 0.3739478443 -0.0458914342
H 2.3648207588 0.3207386258 -0.8975317085
C 1.1891504926 -1.0630283416 0.2809120419
H 1.0795950389 -1.1547621748 1.3747785076
O -0.0397193504 -1.3272610648 -0.3579365175
O 2.0866353353 -2.0416664717 -0.1029174154
O 2.4299549367 0.9196614195 1.0055530218
O 0.0969006804 1.2003009587 -1.7518361311
O -0.3479724941 1.0854691576 1.8039542442
O -3.4098109676 -0.0980319914 -0.243372412
H -2.4219528041 -1.7272706741 -1.0718101499
H -1.9653454427 -0.132967612 -1.7385943453
H 1.9966174874 -2.1943436248 -1.0568856075
H 1.8412475245 1.0643553496 1.7639917973
H 0.806864968 1.5452383752 -2.3124576673
H -1.1344207827 1.0915253601 2.3673769348
H -4.1424807356 -0.1413200884 -0.8738299036
*
