! wb97x-v def2-tzvp def2/J RIJCOSX DEFGRID2 scfconv7 GCP(DFT/TZ) printgap
%output
    printlevel normal
end
%cpcm
    smd true
    smdsolvent "water"
end
* xyz 0 1
C -2.5684742270708725 -0.8976675077113687 0.3353782668330123
C -1.145175985918058 -0.4399706890813022 0.5899129560732782
H -0.9896783750858699 -0.39378672558982236 1.6820162595424963
C -0.8182093653763403 0.9241675378111737 -0.02389383027795138
H -1.032105405452678 0.8988155637888146 -1.0978829076252403
C 0.656849374437238 1.2625513017091132 0.1851783501518402
H 0.8342126339264818 1.3924660586785027 1.2667594120221004
C 1.544260094235499 0.13915786804785776 -0.31669962317176303
H 1.4426730426128196 0.04744309660217521 -1.4091882307528156
C 1.1031447163241073 -1.1789674713320617 0.3168467072043197
H 1.2331432699109044 -1.1446604492639758 1.411188538461587
O -0.27296159759731875 -1.430952939751203 0.014349464513790542
O 1.8647652636109362 -2.2100475019203953 -0.25271865059040677
O 2.8926964450086556 0.44539074160080605 0.043815617409586255
O 1.0142888762340627 2.45898714396836 -0.5134389325795733
O -1.6467252016932308 1.956977541571306 0.5193203121048774
O -2.902462654924941 -0.9468019214019161 -1.0564883354584675
H -3.2593120150942325 -0.1904881872675699 0.8011429794712576
H -2.7120809657003777 -1.880766635139646 0.8033690449270658
H 1.8349877413868112 -2.973525730769154 0.3400886154935535
H 3.4580953733940287 -0.22592554838142215 -0.3608651240015618
H 0.4319986976643977 3.1578611542746344 -0.18471723504348084
H -1.4934503203753065 1.983866014151892 1.4754561910748598
H -2.3303388452269744 -1.6084154406471742 -1.4673195116253155
*
