! r2scan-3c def2/J RI DEFGRID2 scfconv6 printgap
%output
    printlevel normal
end
%cpcm
    smd true
    smdsolvent "water"
end
* xyz 0 1
C -3.5848262522 0.2843593024 -0.3294600629
O -2.1945081214 0.3728106369 -0.6608857339
C -1.3063091627 -0.205808272 0.1384431127
O -1.604099159 -0.8179047294 1.1430738327
C 0.1045943542 0.0330150795 -0.3411768444
C 0.9276234249 -1.254307518 -0.2490947958
C 2.3760452067 -0.9943806465 -0.6496662372
C 2.990810283 0.0882226807 0.2315714999
C 2.1771352666 1.3745919045 0.1330797297
C 0.7290605263 1.1245662319 0.5418635943
H -3.698301788 0.0313696204 0.7252169611
H -4.0430606593 -0.4872152876 -0.9472062781
H -4.0200191474 1.2558693812 -0.5486158823
H 0.0582850386 0.3850552569 -1.3749771508
H 0.8807826937 -1.6231068219 0.7777390501
H 0.4890296491 -2.015933353 -0.8971442166
H 2.948189874 -1.9188745401 -0.5606762882
H 2.4100208962 -0.6756630523 -1.6934724429
H 3.0035362121 -0.2537098767 1.268506185
H 4.0210182955 0.2759676172 -0.0746842032
H 2.6076698285 2.1403179535 0.7799266101
H 2.2041007142 1.7445049409 -0.893673725
H 0.6875750607 0.7967843213 1.5831528496
H 0.147649264 2.0443862242 0.4513332914
*
