! r2scan-3c def2/J RI DEFGRID2 scfconv6 printgap
%output
    printlevel normal
end
%cpcm
    smd true
    smdsolvent "water"
end
* xyz 0 1
C -3.4294887127 0.5948309219 0.0189246729
C -1.9340690469 0.5078975961 0.0457805561
C -1.1413794044 1.4900839064 -0.3613345846
C 0.3542922755 1.4433418931 -0.3494329251
C 0.8767199741 0.007787967 -0.2344139815
H 0.6647039169 -0.5059029972 -1.1781459707
C 0.1108286313 -0.706064366 0.8834602727
C -1.3816644547 -0.8074332198 0.5508756339
H -1.9318667336 -1.1034789769 1.4530902789
O -1.6565404203 -1.8623489996 -0.364690639
C 2.3716521086 -0.0262180925 -0.0059230869
C 2.9352290922 0.4640635724 1.0869888192
C 3.176268446 -0.6509983388 -1.1041982713
H -3.8416100618 -0.3009661606 -0.4433423807
H -3.7625290789 1.4707192371 -0.5305728956
H -3.8170415914 0.6493882231 1.036037151
H -1.5773295496 2.4168050713 -0.711023545
H 0.7429410755 1.9099966804 -1.2578128123
H 0.7198029537 2.0352142769 0.4951094406
H 0.5074097946 -1.7123093061 1.0329611319
H 0.222850044 -0.152680739 1.8156591381
H -1.2105438095 -1.6693839869 -1.200605376
H 4.0012038786 0.4349085469 1.2352797254
H 2.3626745548 0.911933652 1.8810304172
H 3.0010878742 -0.1257471987 -2.0423149671
H 4.2385285969 -0.6213020401 -0.8783460758
H 2.8761300971 -1.6891098516 -1.2425046519
*
