! r2scan-3c def2/J RI DEFGRID2 scfconv6 printgap
%output
    printlevel normal
end
* xyz 0 1
C -2.7470673379 -6.84177e-05 0.7341548888
C -1.9716211258 8.18089e-05 -0.5853587844
C -0.4919301593 3.21043e-05 -0.3254938886
C 0.2016006751 -1.1949204768 -0.1800889663
C 1.5566900858 -1.1969545834 0.0997907577
C 2.2383916487 -6.2518e-05 0.2406679952
C 1.5567611447 1.1969145993 0.0998521805
C 0.2016797297 1.1949618354 -0.1800355596
H -3.8176027359 -0.000126033 0.5451427162
H -2.4960489454 0.8814780955 1.3196274845
H -2.4959064112 -0.88155497 1.3196063339
H -2.245091432 0.8850949491 -1.1627763727
H -2.2451863343 -0.884734683 -1.1630226733
H -0.325380509 -2.1320481693 -0.2903923577
H 2.0826853043 -2.1342365704 0.2072075873
H 3.2961885156 -8.61881e-05 0.4577175967
H 2.0828325982 2.1342362659 0.2073233003
H -0.3252741403 2.1321637788 -0.2903213551
*
