! pbe def2-sv(p) def2/J RI DEFGRID1 loosescf d4 GCP(DFT/SV(P)) printgap
%output
    printlevel normal
end
* xyz 0 1
C 3.7482222217 0.2312696107 0.0716009331
C 2.2896081488 0.1698311734 -0.3729537022
H 2.2567224926 -0.0365797664 -1.4490237349
C 1.5663207314 1.4848675088 -0.1054670782
C 0.1184356443 1.3924813904 -0.5694627308
C -0.6770306739 0.2802496022 0.1292028595
H -0.7204856607 0.4776051068 1.2055580788
C 0.0686920178 -1.0561571497 -0.0463967219
H 0.0038244601 -1.3573565683 -1.1066858518
C 1.5435849257 -0.9376906889 0.3617308794
O -0.5418125028 -2.0456323651 0.7664558706
C -2.1222811562 0.2762507394 -0.4241198343
C -2.939528024 -0.9564125068 -0.0403373306
C -2.8846391658 1.5142208068 0.0563753228
H 4.2523219583 -0.7100848736 -0.133355189
H 4.2717772851 1.0244990964 -0.4562267678
H 3.8102977259 0.429838369 1.1392292538
H 1.5979816964 1.7046609818 0.9637726107
H 2.0645010321 2.3013737906 -0.6318766463
H -0.3672805996 2.3508477309 -0.3917418203
H 0.103053321 1.2051779504 -1.6465254611
H 1.5774118452 -0.7430404263 1.436980356
H 2.0343597552 -1.8977589673 0.1788627973
H -0.0019618855 -2.846938856 0.7415356698
H -2.0590114766 0.310000619 -1.5188082161
H -3.9669412026 -0.8325302173 -0.3773578543
H -2.93903612 -1.0932161649 1.0376818906
H -2.539503937 -1.8571422485 -0.4937018835
H -2.4165071237 2.4368907201 -0.2723535609
H -2.939425546 1.5202036594 1.1427048895
H -3.8988380872 1.498436075 -0.3355969445
*
