! pbe def2-sv(p) def2/J RI DEFGRID1 loosescf d4 GCP(DFT/SV(P)) printgap
%output
    printlevel normal
end
* xyz 0 1
C -1.7624936569 -1.0489968837 -0.6467773198
C -1.0841696144 -0.5032514012 0.6315320642
H -1.7595243371 -0.6323052934 1.4844587734
C -0.7373779967 0.9912265666 0.5498053675
H -1.6253998264 1.5361193088 0.2159411649
C 0.4114435679 1.2334763143 -0.4454212218
H 0.7270949215 2.2833620495 -0.323711144
C 1.6140246422 0.337132394 -0.0789813357
H 2.3101800363 0.2949183979 -0.9290939376
C 1.2177068659 -1.1237075232 0.20809712
H 2.0095823161 -1.5455547913 0.8484808074
O 0.0612792819 -1.2765701092 0.9874644307
O 1.1562204669 -1.8008015052 -1.0102669767
O 2.2587827572 0.8087846149 1.080810629
O -0.0725459379 1.0183336009 -1.7443626443
O -0.4259026127 1.5165040486 1.8155094309
O -2.7715273156 -0.203562721 -1.1429056302
H -2.2446362052 -1.9980679598 -0.3986165225
H -1.0005103891 -1.2230167382 -1.4095449254
H 1.0493113448 -2.7509887255 -0.8538992168
H 2.6970331173 1.6530911156 0.8984109599
H 0.6183099756 1.2092822452 -2.3947141086
H 0.356705425 1.0558183894 2.1617401497
H -2.3510034289 0.4821921593 -1.6820821962
*
