! wb97x-v def2-tzvp def2/J RIJCOSX DEFGRID2 scfconv7 GCP(DFT/TZ) printgap
%output
    printlevel normal
end
* xyz 0 1
C -1.1792370370389583e-05 -2.4662469472241022e-05 -4.6031017033712074e-05
F 0.5311534287886945 -0.334650299091461 1.1736377938919458
F 0.4169162003551515 -0.8514676772821904 -0.9343512495823899
F 0.37950163809628945 1.2342011799665615 -0.3234487981959534
F -1.3275697376102007 -0.04805340905636249 0.08420444252241517
*
