! r2scan-3c def2/J RI DEFGRID2 scfconv6 printgap
%output
    printlevel normal
end
* xyz 0 1
C -1.4465740234 -0.0983880751 3.0816e-06
C 0.0531514849 0.0734417777 -5.44106e-05
O 0.6027193371 1.1716307893 1.737e-06
N 0.7500455952 -1.0709473027 -1.1965e-06
H -1.7537685267 -0.6532602161 -0.8821613188
H -1.7542330577 -0.645484725 0.886898374
H -1.9213568629 0.8779787372 -0.0043038665
H 1.7562037705 -1.0343266555 0.0003306732
H 0.2872545966 -1.963095166 -0.000163164
*
