! pbe def2-sv(p) def2/J RI DEFGRID1 loosescf d4 GCP(DFT/SV(P)) printgap
%output
    printlevel normal
end
* xyz 0 1
C -2.5287480061 0.1168832739 -1.4307021426
C -2.0502455162 0.4579039427 -0.0115578085
H -2.9364872083 0.6314978752 0.6071383435
C -1.1369010179 1.7005497706 0.0024623675
C 0.2955082879 1.3682210983 0.4115432706
C 0.7952355328 0.1793090171 -0.4109475692
H 0.5802682999 0.3846908114 -1.4637688815
C 0.0164884026 -1.0709693392 0.0293743008
C -1.3680695725 -0.7733521442 0.5346288556
O -1.9333888311 -1.5205942572 1.313041318
C 2.2816843293 -0.0578647962 -0.2820020453
C 3.0246817766 -0.3106740217 -1.3485764808
C 2.8696657567 0.0022217881 1.0949024795
H -1.6853376879 -0.0583194749 -2.0921742677
H -3.1515908347 -0.7752837632 -1.4143820163
H -3.1180168197 0.9415237944 -1.8227004137
H -1.1267335006 2.1463595863 -0.9931296837
H -1.5432443748 2.441724115 0.6912381057
H 0.9307279524 2.2384084193 0.2413563721
H 0.3278908581 1.1194656812 1.4740302631
H -0.0872561358 -1.7708961402 -0.8033938342
H 0.5448609851 -1.6101810867 0.8186400317
H 4.0822836441 -0.4982877792 -1.2735771137
H 2.6087244423 -0.3404039482 -2.3414661569
H 3.8815398319 -0.3930922177 1.0963471679
H 2.9037661444 1.0337845817 1.442245779
H 2.2704669765 -0.5657814339 1.8035770851
*
