! pbe def2-sv(p) def2/J RI DEFGRID1 loosescf d4 GCP(DFT/SV(P)) printgap
%output
    printlevel normal
end
* xyz 0 1
C -1.85338296 -0.9787294887 -0.822103877
C -1.2740838828 -0.1819300105 0.3573726561
H -2.0765840789 -0.0501950081 1.0924806499
C -0.7719552973 1.223105345 -0.063426852
H -0.9308511208 1.3730081986 -1.1364621442
C 0.7340954438 1.3503957654 0.1975516948
H 0.9202898189 1.4101555528 1.2830989715
C 1.4318152809 0.095479295 -0.3391651144
H 1.1490452939 -0.0474365665 -1.3910804344
C 0.9611528265 -1.1235833599 0.4711788858
H 1.6465048565 -1.2609950391 1.3217321361
O -0.2944090385 -0.9314191835 1.0765198229
O 0.9866788957 -2.2324721929 -0.3749339553
O 2.8175477171 0.2916785516 -0.2170047101
O 1.2061814373 2.5069629371 -0.4377681994
O -1.5154918551 2.2406529909 0.5500751778
O -2.6281603852 -2.0693856385 -0.3872997556
H -1.0417705493 -1.3206253662 -1.4768149885
H -2.530230887 -0.3379982964 -1.389090638
H 0.903945614 -3.0540853853 0.1317993378
H 3.2936763419 -0.4039402609 -0.6919155093
H 2.1764370128 2.4799257993 -0.4288635974
H -1.2872520707 2.3003820339 1.4895345582
H -2.1045535415 -2.5937800373 0.2351763273
*
