! pbe def2-sv(p) def2/J RI DEFGRID1 loosescf d4 GCP(DFT/SV(P)) printgap
%output
    printlevel normal
end
* xyz 0 1
C -1.0849743217 -1.8946133264 2.48151e-05
C -0.0104488593 -0.8617767317 2.39761e-05
C 1.3253191617 -1.2462261012 -7.0268e-06
C 2.3467714031 -0.3137772431 1.80766e-05
C 2.0534649033 1.0433740283 -1.83125e-05
C 0.7372463736 1.4497421525 1.55317e-05
C -0.307021638 0.5155731991 -1.13838e-05
C -1.6665869883 1.0313980278 -3.25833e-05
O -2.702517994 0.3946524576 3.7266e-06
H -1.7265906233 -1.7735379902 0.8716704894
H -1.7254942622 -1.7745372641 -0.8725656908
H -0.6601915926 -2.8943891512 0.0007991963
H 1.5655327693 -2.2988419329 -0.0002187206
H 3.3742669117 -0.6434540389 -9.25443e-05
H 2.8483069385 1.7723323862 4.28493e-05
H 0.4937736427 2.5020427098 0.0001989102
H -1.7129171001 2.1383729527 -4.9675e-05
*
