! pbe def2-sv(p) def2/J RI DEFGRID1 loosescf d4 GCP(DFT/SV(P)) printgap
%output
    printlevel normal
end
* xyz 0 1
C -2.182235586 -1.173384131 -0.0762001244
C -1.2227430741 -0.3271342796 0.7712395221
H -1.7421398377 -0.0727403194 1.7014735048
C -0.8639835208 0.995795183 0.0703464054
H -1.0470513989 0.9135298111 -1.0117844943
C 0.626561519 1.2839658417 0.2674186443
H 0.8343842525 1.3665875746 1.3472755661
C 1.4301938842 0.1191291791 -0.3242507552
H 1.2266551779 0.0641544241 -1.3999073507
C 0.9999435473 -1.2164342956 0.3352401967
H 1.8101009782 -1.5838288896 0.9785069265
O -0.0794136953 -1.0432360173 1.22534476
O 0.7855284503 -2.2240471103 -0.5928463061
O 2.811271402 0.3630999858 -0.2276882634
O 0.9327826582 2.497448436 -0.3758016561
O -1.6737844494 2.0060954405 0.6169707621
O -1.6711352437 -1.3453087035 -1.3862946265
H -3.1385794056 -0.6428724826 -0.1095614786
H -2.3110405275 -2.1431366515 0.4171486896
H -0.0260164743 -2.0171489498 -1.1075940649
H 3.0962113154 0.3117239617 0.6966703207
H 1.8852052597 2.517476585 -0.5574234766
H -1.3600461274 2.8595805835 0.2803731011
H -2.3260353732 -1.8158411268 -1.92215741
*
