! r2scan-3c def2/J RI DEFGRID2 scfconv6 printgap
%output
    printlevel normal
end
%cpcm
    smd true
    smdsolvent "water"
end
* xyz 0 1
C 0.0052347936 1.2492446106 0.1110357259
C 1.2271191019 0.334138643 -0.0870181518
C 0.6561857364 -1.047211294 0.0366986683
C -0.6649390985 -1.0417241619 0.0367517024
C -1.2242847092 0.3443402243 -0.0870485237
H 0.0088839486 2.0896856565 -0.5800304295
H 0.0068711126 1.6479699305 1.125670284
H 1.6713646396 0.464064316 -1.0776897537
H 2.0083516112 0.5217718687 0.6505094764
H 1.2910046238 -1.9148327135 0.0923037801
H -1.3069477554 -1.9040095909 0.09234571
H -1.6674217759 0.4779036531 -1.0777641657
H -2.0039536889 0.5384670299 0.6504960992
*
