! r2scan-3c def2/J RI DEFGRID2 scfconv6 printgap
%output
    printlevel normal
end
* xyz 0 1
C 3.279699929 1.0664807799 -0.0006673541
N 2.2764131313 0.0343686395 -0.0002808234
C 2.473428274 -1.2925208293 -0.0017551516
N 1.3559233895 -1.9961242507 -0.0012879334
C 0.3749621901 -1.0701311162 0.0004098799
C 0.9139175083 0.213608334 0.0009453171
C 0.0944360043 1.3792743662 0.0013685333
O 0.4768435695 2.5464855036 0.0028647718
N -1.2601225941 1.0550933314 -0.000434476
C -1.8184126439 -0.2151951126 -0.0003234196
O -3.0333858467 -0.3548014973 -0.0016533575
N -0.9678011988 -1.2870779591 0.0001051527
C -1.4849423656 -2.6421712582 0.0028262095
C -2.2200270866 2.1502003131 -0.0020563829
H 3.9070588636 0.977858604 0.8854068286
H 3.9019413386 0.9822599755 -0.890812773
H 2.7787329035 2.0323772611 0.003044759
H 3.4463815458 -1.7403258305 -0.0031107879
H -1.1811340799 -3.1452794214 0.9187598743
H -1.0816403195 -3.1814345486 -0.8514360887
H -2.5691119896 -2.5855185904 -0.0561787711
H -1.656936494 3.0798681523 -0.0010771805
H -2.8527597442 2.0835106171 0.8815093813
H -2.8496216579 2.0834499205 -0.8878671893
*
