! pbe def2-sv(p) def2/J RI DEFGRID1 loosescf d4 GCP(DFT/SV(P)) printgap
%output
    printlevel normal
end
* xyz 0 1
C -2.4071730346 -0.707361084 -0.004793915
C -0.9701370753 -0.3013830438 0.3463947223
H -0.9083629991 -0.0428503524 1.4152044758
C -0.5233936708 0.9111420707 -0.4937825541
H -0.5368324757 0.619887131 -1.5500031721
C 0.9156182956 1.3286196351 -0.1107106993
H 0.8595682643 2.1415330448 0.6230668085
C 1.6908627492 0.1502496136 0.5273049542
H 2.7525260888 0.2731251222 0.2776734752
C 1.2250548034 -1.1613247072 -0.1153953153
H 1.7651238771 -2.0069056571 0.3376669843
O -0.130536337 -1.4286768004 0.1109621763
O 1.5085953661 -1.0614486079 -1.4812150523
O 1.4976482361 0.053939265 1.9148534297
O 1.6215707585 1.8679164853 -1.1970127642
O -1.4308788742 1.9774459923 -0.3984619349
O -2.9645515229 -1.6419651099 0.8815346983
H -2.4088929689 -1.1918215219 -0.9827754663
H -3.0193042451 0.2018650666 -0.0564689691
H 1.2770761108 -1.8914665541 -1.9249825701
H 2.0428269157 0.7131138959 2.3689410062
H 1.7434503015 1.175578487 -1.8651863413
H -1.3971589452 2.362831108 0.4897703597
H -2.9624843338 -1.280624907 1.7793704675
*
