! pbe def2-sv(p) def2/J RI DEFGRID1 loosescf d4 GCP(DFT/SV(P)) printgap
%output
    printlevel normal
end
* xyz 0 1
C -2.0818454845 -1.3480070026 -0.1612617279
C -1.0302918209 -0.4980855398 0.5702943141
H -1.4780601286 -0.1345627273 1.5038377428
C -0.6262951955 0.7195357142 -0.2687434537
H -0.4998276386 0.4270243756 -1.3245086472
C 0.7259026271 1.2294123792 0.2359550744
H 0.6929106123 1.3435758507 1.329393013
C 1.7853143735 0.1765182354 -0.1097048678
H 2.0119386799 0.2601169147 -1.1821883053
C 1.2175868272 -1.2465082273 0.1240268118
H 1.9587662693 -1.835463453 0.684587514
O 0.0960891107 -1.2715943169 0.970068126
O 0.9582063733 -1.806403561 -1.1259066551
O 2.9197766883 0.4443584175 0.673084667
O 0.9823465501 2.4633901846 -0.3845326147
O -1.6404598993 1.6841080582 -0.1609706177
O -3.3394264103 -0.7209537606 -0.1761250359
H -2.2135032951 -2.2932234445 0.370841328
H -1.7407855961 -1.5547242575 -1.1856848961
H 0.7495870398 -2.7489384548 -1.035546483
H 3.6739727554 -0.0790965623 0.3667009418
H 1.830998365 2.805736973 -0.0701882582
H -1.2795177409 2.5339601978 -0.4603848126
H -3.21921143 0.2142265571 -0.4068190362
*
