! pbe def2-sv(p) def2/J RI DEFGRID1 loosescf d4 GCP(DFT/SV(P)) printgap
%output
    printlevel normal
end
* xyz 0 1
C -1.4751016376 0.7739305637 0.0006499365
C -1.3315302334 -0.6574447873 -0.5070492518
C -0.1811954203 -1.201805248 0.3372997574
C 0.7953537688 -0.0166543355 0.4888246822
C -0.0272207092 1.241778909 0.150440951
O 1.8864272287 -0.0771066127 -0.4125321207
H -1.9706802763 0.7728213494 0.9726876678
H -2.0429181029 1.4081599904 -0.6772241048
H -2.243602074 -1.2408886977 -0.3951042507
H -1.0458006453 -0.6484803136 -1.5595916525
H -0.5478794465 -1.4978562685 1.3203635972
H 0.3036219947 -2.0595728284 -0.1262932962
H 1.1865490889 0.0306867767 1.5154282541
H 0.0867016509 2.0176843449 0.9043170954
H 0.3508208913 1.6257008152 -0.7977884194
H 2.4298280679 -0.8503025342 -0.2111636948
*
