! wb97x-v def2-tzvp def2/J RIJCOSX DEFGRID2 scfconv7 GCP(DFT/TZ) printgap
%output
    printlevel normal
end
%cpcm
    smd true
    smdsolvent "water"
end
* xyz 0 1
C 1.4384642732400499 2.251394539772692 1.209382132050104
C 1.791574924088154 1.6518385775889781 -0.1403161596305387
C 2.8481761279950844 0.5286607399761456 -0.009502009580869669
C 2.0046355033815293 -0.7112357114457822 0.09009261674407082
C 2.3045313921731707 -2.021339542807762 0.4308347994477092
C 1.2894387179909885 -2.9831964197012355 0.38733563024374595
C -0.007610610236959944 -2.632364682158945 0.012943223037552189
C -0.30028956608994806 -1.3173243825815668 -0.32784688799606476
C 0.7110465083529355 -0.3680034420946303 -0.2937926866555456
O 0.5560661020651219 0.9427210839428204 -0.6192955665557299
O -1.5845687026903592 -0.9721799048230382 -0.7584202624647072
C -2.2656379262161215 -0.0676509501068402 0.04825081048322778
O -1.8960483449917356 0.23322614349245582 1.1766511626640956
N -3.3522463070624675 0.395912237820425 -0.578828118754979
C -4.317093339953891 1.234793301483487 0.12135367407845456
C 2.1260250631006046 2.6984752547550097 -1.177167116982187
H 0.598657687469478 2.945711382055217 1.1127134616201002
H 1.168753355121675 1.464181098321439 1.9214983276595408
H 2.299642035537144 2.7972874217969936 1.6068180952123596
H 3.491896637335678 0.48864136763584526 -0.896752140227723
H 3.4847993770487404 0.6881172145475687 0.8647850448842882
H 3.311802659715774 -2.298009428411324 0.7262302518289635
H 1.5057030234983269 -4.012124208483288 0.6539274707864154
H -0.8028696048132126 -3.3703313001737474 -0.012018799341490532
H -3.5855008344585735 0.01319165935660676 -1.4826097765709354
H -4.834071760026139 0.680255949031704 0.9116620626235854
H -5.05202981356229 1.5871602219498941 -0.6024250808140851
H -3.8184298463322275 2.1002526955744 0.5641553179410237
H 3.0319278896680477 3.2319210491920334 -0.8735650964036005
H 1.3140379225886643 3.425817500928085 -1.2702273066102339
H 2.3070186243701434 2.2347734488018034 -2.150995627711552
*
