! pbe def2-sv(p) def2/J RI DEFGRID1 loosescf d4 GCP(DFT/SV(P)) printgap
%output
    printlevel normal
end
* xyz 0 1
C -3.9190573187 1.4584563247 0.0234160242
C -3.3009623219 1.1104215865 1.2128368609
C -2.0019845927 0.633342962 1.2070041162
C -1.3136743517 0.4998774446 0.0075318872
C -1.9369871618 0.8494433431 -1.183991011
C -3.2353719758 1.3279337456 -1.1738999369
C 0.0726986458 -0.0209587009 -0.0009696408
C 1.150416144 0.8423015842 0.1528867834
C 2.4412740729 0.3432612984 0.1436142181
C 2.6875551024 -1.0108030832 -0.0149291818
C 1.6193713072 -1.877079371 -0.1677346632
C 0.3269872859 -1.3800618618 -0.1608275262
Cl -1.0110730332 -2.4730382161 -0.3524273843
Cl 3.7754693265 1.4382264384 0.335553907
H -4.9325728709 1.8297149369 0.0293627095
H -3.831503816 1.2090084342 2.1477574878
H -1.5162872114 0.3573979103 2.1311805078
H -1.4004920577 0.7425417732 -2.1150783351
H -3.7142203388 1.5980274032 -2.1028458534
H 0.9714027209 1.898199986 0.2776041301
H 3.6980268883 -1.3841142763 -0.0185019536
H 1.7884379085 -2.9339578352 -0.2914710407
*
