! r2scan-3c def2/J RI DEFGRID2 scfconv6 printgap
%output
    printlevel normal
end
* xyz 0 1
C -2.1863589331 -0.0402762805 -0.1820869217
C -0.7805022053 -0.0598990648 0.4022867952
C 0.089414182 -1.1916476962 -0.1533168679
C 1.5089683188 -0.710697511 0.123739509
C 1.4524520418 0.7730387895 -0.2457862877
C 0.0205438891 1.2221248328 0.0967921233
H -2.1472361519 0.0763579396 -1.2632150799
H -2.7044389802 -0.9694324141 0.0448005111
H -2.7605065702 0.7845780077 0.2338068339
H -0.85533019 -0.1832880241 1.4877227081
H -0.1312073436 -2.1513686174 0.3119927364
H -0.0680376888 -1.284001867 -1.2295534329
H 1.7360765783 -0.8260683939 1.1849307971
H 2.2594141428 -1.2530623242 -0.4495595309
H 2.2033111752 1.354191564 0.2876126707
H 1.6363044339 0.8901777209 -1.314375409
H 0.0108622606 1.8952587691 0.9534839897
H -0.424729288 1.7543291227 -0.7437258841
*
