! r2scan-3c def2/J RI DEFGRID2 scfconv6 printgap
%output
    printlevel normal
end
%cpcm
    smd true
    smdsolvent "water"
end
* xyz 0 1
C -2.3785878839 -0.9868055571 0.668834568
N -1.6056306058 -0.0882662066 -0.1619559389
C -2.3210517341 1.1182477429 -0.5153460504
C -0.2289768032 -0.0416514657 -0.0500478184
C 0.5200136369 -1.1825631274 0.2749038614
C 1.8984718217 -1.1503322628 0.3155196271
C 2.5924285712 0.0153006529 0.036785606
C 1.8718338851 1.1514198293 -0.2853365647
C 0.49132085 1.1297742918 -0.326951155
H -3.3612511668 -1.1213063427 0.2186599394
H -2.5091634429 -0.5894020336 1.6834184178
H -1.906606882 -1.9608991272 0.73690156
H -2.2904686343 1.8763275782 0.2772247055
H -3.3609628742 0.8588132707 -0.7035520025
H -1.9073343127 1.5397940874 -1.4298202261
H 0.0296248499 -2.1189066488 0.4867165923
H 2.4387645487 -2.0519429954 0.5672322911
H 3.6710092156 0.0366845031 0.0718357421
H 2.389666914 2.0754559269 -0.5007902373
H -0.0220726334 2.0457674721 -0.5676428565
*
