! pbe def2-sv(p) def2/J RI DEFGRID1 loosescf d4 GCP(DFT/SV(P)) printgap
%output
    printlevel normal
end
* xyz 0 1
C -2.3925079989 -1.1240248014 -0.3578337699
C -1.0672397271 -0.6159343173 0.2350192091
H -1.1165525121 -0.624734434 1.3368139674
C -0.7805082806 0.8352208857 -0.2038044363
H -0.8670969801 0.9134488477 -1.2983120039
C 0.6459776745 1.2542752846 0.1760345311
H 0.6883557687 1.3895212984 1.2674885533
C 1.6606720888 0.1762924486 -0.2268106208
H 1.7098203016 0.140540712 -1.3270034513
C 1.2122262569 -1.2024246626 0.292594906
H 1.2122844195 -1.1821665037 1.3962982088
O -0.066903639 -1.5138543245 -0.2002813586
O 2.0876321904 -2.202733984 -0.0885700848
O 2.9090487124 0.5351097981 0.3111416581
O 0.9282650423 2.466647102 -0.4749771906
O -1.6676755425 1.7202211545 0.4285978494
O -3.5038794481 -0.3906879002 0.0885676993
H -2.4861247623 -2.1898963861 -0.1279705707
H -2.3584228085 -1.0077934313 -1.4435073329
H 1.8669903616 -2.4930845485 -0.9880367367
H 3.5221172216 -0.2094056607 0.2108448211
H 1.822483986 2.7456598423 -0.2272116971
H -2.5763133571 1.4632571083 0.1887318543
H -3.7182561328 -0.640233457 0.9988834326
*
