! pbe def2-sv(p) def2/J RI DEFGRID1 loosescf d4 GCP(DFT/SV(P)) printgap
%output
    printlevel normal
end
* xyz 0 1
C -3.0633264325 1.1877527414 0.0391752683
C -1.7984225662 0.3841766994 0.0388556488
C -1.8128097827 -0.9858168056 -0.1773176894
C -0.6391385957 -1.7176989654 -0.1914965121
C 0.5864992856 -1.0968222638 0.0065986776
C 0.6115879641 0.2854411886 0.233143174
C -0.5719512299 1.0042654315 0.2422581795
O 1.8252472962 0.91068952 0.4915363046
C 2.3293912631 1.6806874286 -0.5870342886
O 1.7662361135 -1.7758592258 -0.0137079382
H -3.9266774245 0.5471660227 0.1947622149
H -3.03661664 1.9436942471 0.8200851786
H -3.1820156289 1.6965160154 -0.9169024814
H -2.7522875148 -1.4932746367 -0.335346795
H -0.6725813164 -2.7839029755 -0.3618170544
H -0.5259039852 2.0678488222 0.4252525124
H 1.6082383774 2.4397354338 -0.9036558009
H 2.5768650219 1.0382855834 -1.4381657187
H 3.2313471618 2.1588289363 -0.2126086876
H 1.6041297512 -2.7233319224 -0.1397476971
*
