! pbe def2-sv(p) def2/J RI DEFGRID1 loosescf d4 GCP(DFT/SV(P)) printgap
%output
    printlevel normal
end
* xyz 0 1
C -2.8896714583 0.5742698197 -0.8900393596
C -1.9953556377 0.4754868739 0.3502376934
H -2.6485323598 0.545872292 1.2290574385
C -0.9436173796 1.5829868527 0.417351006
C 0.1965188429 1.3419099388 -0.5699847256
C 0.8385885045 -0.0540117967 -0.417456163
H 0.7269246642 -0.5953248821 -1.3617361187
C 0.1218089103 -0.8893777093 0.6634631601
C -1.3578260605 -0.8943067435 0.4197570037
O -1.9985237125 -1.9198813632 0.2822493902
C 2.3161907805 0.006394477 -0.0862866304
C 2.7845305001 0.7272534579 0.9202141841
C 3.2041902088 -0.8233605459 -0.9601375995
H -2.2925148503 0.5387820493 -1.7973707187
H -3.584647109 -0.2619801644 -0.9074975439
H -3.453133468 1.5028740235 -0.8757331208
H -1.416868836 2.5400458493 0.1937986011
H -0.5442544046 1.6445314109 1.430560989
H -0.1863460338 1.4507746135 -1.5851262015
H 0.955857258 2.1114339002 -0.4289766951
H 0.4974192426 -1.9137385544 0.6610088451
H 0.3126093396 -0.4519958228 1.644050594
H 3.8346368015 0.7571598392 1.1539006508
H 2.1444566515 1.3211323 1.5500177439
H 4.2386088543 -0.7691284764 -0.6331318443
H 2.8825646862 -1.8639270017 -0.9403001659
H 3.1426697333 -0.4770444669 -1.9910818611
*
