! pbe def2-sv(p) def2/J RI DEFGRID1 loosescf d4 GCP(DFT/SV(P)) printgap
%output
    printlevel normal
end
* xyz 0 1
C -0.4879035365 0.4462932721 -0.0007107693
C 0.4879012439 -0.4462599249 -0.0005235021
Cl 2.1375159226 0.0413049548 0.0002039902
Cl -2.1375131809 -0.0413170318 0.000215464
H -0.337915908 1.5133391714 0.0003116455
H 0.3378467895 -1.5133117469 -0.000357657
*
