! pbe def2-sv(p) def2/J RI DEFGRID1 loosescf d4 GCP(DFT/SV(P)) printgap
%output
    printlevel normal
end
* xyz 0 1
C -2.1120834437 -0.8828802453 0.8871548818
C -1.5990393311 0.3954803616 0.222145281
C -1.8740849478 0.3560535447 -1.2786656313
C -0.1506179193 0.7594102977 0.6089201745
C 1.0856364242 0.0322928226 0.0322228177
C 1.3996394001 0.482998995 -1.3980887767
C 2.2752326954 0.4379555304 0.9171970188
C 0.9672377419 -1.4914043733 0.0686891614
H -1.877067841 -0.8848994404 1.949017123
H -3.1936436153 -0.9412380441 0.7797826957
H -1.6844609222 -1.7720511628 0.4365969377
H -2.2000862801 1.2182771095 0.6336116549
H -1.4199143139 -0.5167994244 -1.7395885241
H -2.9473516213 0.3020046345 -1.4521205297
H -1.4954951764 1.2516828546 -1.7642474466
H -0.0174354336 1.8203848405 0.3777790689
H -0.1000030813 0.6680456935 1.6976914242
H 0.6466023621 0.1456178136 -2.1013736208
H 2.3578667207 0.0727728698 -1.7114923747
H 1.4618506127 1.5677049406 -1.4529142138
H 3.1996236487 0.0143602531 0.530832793
H 2.1379826054 0.081240415 1.9356969773
H 2.381633994 1.5202358305 0.9444685363
H 0.2304633058 -1.8468355151 -0.6455315444
H 0.6909082413 -1.8325268973 1.0629372178
H 1.9248076114 -1.9393848252 -0.1910920531
*
