! wb97x-v def2-tzvp def2/J RIJCOSX DEFGRID2 scfconv7 GCP(DFT/TZ) printgap
%output
    printlevel normal
end
* xyz 0 1
C 1.2575931081628606 1.4920792061029078 -0.15169279852500359
C 0.7004074314298236 0.10535429469741593 -0.4425532904868353
C 1.5024806319801618 -0.990932080869403 0.28119153892727317
C -0.7678654908181044 -0.0161422339618497 -0.09013459382719485
O -1.3888547439661465 0.9070871860096711 0.4287320664194577
C -1.4425338589806114 -1.3279182082986452 -0.3777495366758427
H 1.2290547608613835 1.7066434454651416 0.9215171490056018
H 2.2986236599892673 1.551360964156763 -0.4821225628169165
H 0.688991269888662 2.270219032103729 -0.6687188394709587
H 0.7597711846925731 -0.09934303245666774 -1.5219956620059467
H 1.1769859541031071 -1.9948333957860476 -0.002464381758585116
H 1.4006398227295598 -0.8858245275411191 1.3667097267508919
H 2.5619155405132177 -0.894332851586787 0.026978781641910334
H -2.5186546506322967 -1.1814185790061156 -0.4883986907516703
H -1.2743855448931947 -1.9954343593287858 0.47690987264357537
H -1.0251652216552123 -1.8172597277670526 -1.2613079423132902
*
