! pbe def2-sv(p) def2/J RI DEFGRID1 loosescf d4 GCP(DFT/SV(P)) printgap
%output
    printlevel normal
end
* xyz 0 1
C -2.4149477099 -0.8671451795 0.3721349469
C -0.958402462 -0.443462337 0.5951606108
H -0.6952946757 -0.6112302112 1.6516409876
C -0.7428353725 1.050402558 0.2643211921
H -1.5415068438 1.3765338062 -0.412077865
C 0.6205897203 1.2557961531 -0.434216026
H 0.9359056844 2.2922545859 -0.2376211965
C 1.6692712015 0.328812335 0.1980211269
H 2.5993648035 0.4236032473 -0.3736519885
C 1.2193636362 -1.1482181691 0.0782411503
H 1.4012488007 -1.6381337833 1.0640361502
O -0.1478554632 -1.2745730771 -0.2203880515
O 1.953434969 -1.7642131483 -0.9149684059
O 1.8249104254 0.7214790214 1.5393405038
O 0.586971717 0.9930503176 -1.8102055946
O -0.8567584691 1.8543101432 1.4094516166
O -2.8392538524 -0.6449942443 -0.9469156229
H -3.0593150937 -0.2627176349 1.012800982
H -2.5204485594 -1.9256928409 0.6401467494
H 1.4745068374 -2.5465647402 -1.2299911954
H 2.6728342957 0.4090312794 1.8844613554
H 0.0229649606 1.6445110392 -2.2511990037
H -0.0844074631 1.6974962618 1.9767957239
H -2.2502698025 -1.1340940164 -1.5399687836
*
