! pbe def2-sv(p) def2/J RI DEFGRID1 loosescf d4 GCP(DFT/SV(P)) printgap
%output
    printlevel normal
end
* xyz 0 1
C -2.3011123197 -0.8720732179 0.7116698105
C -0.8531766657 -0.3765564974 0.7836395077
H -0.6262766904 -0.0920568816 1.8227353764
C -0.6483468566 0.8436665113 -0.1319640216
H -0.9271483055 0.5513826326 -1.1500411701
C 0.8253558104 1.3093747267 -0.1228600781
H 0.922868482 2.1417225243 0.5844171595
C 1.7755915768 0.1738321421 0.3247566906
H 2.7408002039 0.3255269548 -0.1760094962
C 1.2096799585 -1.1639577247 -0.1640835886
H 1.8801727116 -1.9846115981 0.136878993
O -0.0176309873 -1.4742460809 0.4273279985
O 1.1187423584 -1.081442684 -1.5566891207
O 1.926027978 0.0983296833 1.7188710463
O 1.2238472335 1.8376674413 -1.3613488772
O -1.5312282535 1.882257549 0.2078117624
O -2.6140007857 -1.1920732492 -0.6240252722
H -2.9544936123 -0.0754044935 1.0851284567
H -2.3853576476 -1.7576427973 1.3525086613
H 0.718056661 -1.8934108777 -1.9029151355
H 2.5099168806 0.8087117454 2.0231353873
H 1.1866292347 1.1316478906 -2.0254489976
H -1.305080837 2.2320008589 1.0823444087
H -3.5341154465 -1.4854239332 -0.6709973728
*
