! wb97x-v def2-tzvp def2/J RIJCOSX DEFGRID2 scfconv7 GCP(DFT/TZ) printgap
%output
    printlevel normal
end
* xyz 0 1
C 1.6598682259482789 -1.23264223405007 0.009544941432849195
C 0.9304732210235932 0.009832115860333243 -0.46669583553282545
H 0.9224927700405776 0.061751464185704916 -1.5608129739501568
C -0.5345490924160603 -0.0018910287845410583 -0.03789122945545473
F -1.1865081261355337 -1.0864853994034276 -0.5236577516467867
F -0.673990545164209 -0.022891709166162653 1.3117131382140366
F -1.1998133470225754 1.0913505589383536 -0.4814672707716896
O 1.5331463796400564 1.215152125214758 -0.005578578896217551
H 1.6639078417449915 -1.2846652260068923 1.1032714824381609
H 2.6923995776487897 -1.1915086388898306 -0.3449993592276709
H 1.1945927480012704 -2.138933081109431 -0.38672640229476946
H 1.7474967729117872 1.1009087736450238 0.9315072458546234
*
