! pbe def2-sv(p) def2/J RI DEFGRID1 loosescf d4 GCP(DFT/SV(P)) printgap
%output
    printlevel normal
end
* xyz 0 1
C -2.5429281852 -0.9205618284 0.2663798135
C -1.122110746 -0.4708449181 0.6112136256
H -1.0306691946 -0.4007115051 1.707490475
C -0.8277533715 0.9144986784 0.0205783788
H -1.0386025475 0.8883521369 -1.0576783981
C 0.6505028229 1.2672272281 0.2223206471
H 0.8319256398 1.3946935231 1.304640892
C 1.5466617778 0.1376424945 -0.3046761132
H 1.404176888 0.0326061798 -1.3855815034
C 1.1257595406 -1.1810778279 0.3630852472
H 1.2867079581 -1.0903859447 1.4639147141
O -0.2303678166 -1.4523118236 0.1223293855
O 1.8706395754 -2.2262243864 -0.147425812
O 2.9023049704 0.4491504752 -0.1203282405
O 0.9097125139 2.4801143111 -0.4424206074
O -1.6617154413 1.8378573722 0.673230786
O -2.7138866009 -0.8967646407 -1.1304195452
H -3.23461476 -0.2279208772 0.7596741099
H -2.6811955019 -1.934733707 0.6584113455
H 1.3354572255 -3.0352486656 -0.1237605789
H 3.1697581334 0.2676247063 0.7924296972
H 1.8677156782 2.5619825245 -0.5697663782
H -1.4553649501 2.7218488987 0.3334677783
H -3.6054708924 -1.2067286334 -1.3431782454
*
