! pbe def2-sv(p) def2/J RI DEFGRID1 loosescf d4 GCP(DFT/SV(P)) printgap
%output
    printlevel normal
end
* xyz 0 1
C -2.2299396889 -1.1914955533 0.0531029934
C -0.8876578866 -0.5520512409 0.4484077245
H -0.978552126 -0.2122788376 1.49136509
C -0.5623671477 0.6610528274 -0.4265281957
H -0.494830676 0.3292606099 -1.4744400136
C 0.7913645334 1.2754049211 -0.0192765969
H 0.6330851817 1.9408508593 0.8375259245
C 1.8067568133 0.1868150222 0.4074794393
H 2.7835939893 0.4484917471 -0.0118949079
C 1.3742523445 -1.1769326117 -0.1468719465
H 2.059247833 -1.9548100658 0.2200176631
O 0.1193228973 -1.561082002 0.3661799264
O 1.3895177536 -1.1063093707 -1.5378361134
O 1.9927691691 0.1246997071 1.7967508848
O 1.2915467174 2.0947255398 -1.0464003914
O -1.6121097418 1.5891135087 -0.2854973835
O -3.3293678622 -0.4875689489 0.5627946163
H -2.2710563097 -2.194277161 0.4841726673
H -2.2896658081 -1.2735507159 -1.0405031087
H 1.2698435843 -1.9883323048 -1.9219856692
H 1.2620327765 -0.3583896114 2.2090645873
H 1.5190346819 1.5441242627 -1.8108754447
H -1.3748728997 2.4031908563 -0.7539151659
H -3.248008102 0.4410166186 0.2879963116
*
