! wb97x-v def2-tzvp def2/J RIJCOSX DEFGRID2 scfconv7 GCP(DFT/TZ) printgap
%output
    printlevel normal
end
%cpcm
    smd true
    smdsolvent "water"
end
* xyz 0 1
C -0.17636507356045844 -2.3517387783009127 -0.015127668467701439
C 0.4849280587838125 -1.0069204460842618 -0.003724683092109305
C 1.8847474152974042 -0.9605772735528069 -0.004269177228258645
C 2.5924710727933835 0.23374739404155398 0.002978363747813679
C 1.914938885473686 1.451215737977318 0.00901086542050879
C 0.5321312745532453 1.455037814895951 0.007050693894488014
C -0.1655526411075231 0.24409474938669037 0.0019652481368114937
N -1.6267031566944705 0.34679660374708887 0.002574641180076429
O -2.1359792815787304 1.469735838307254 -0.04082692897811755
O -2.298843284358375 -0.6826791273608604 0.04849540076015906
H -0.7992046373115902 -2.5013007921817105 0.8710067576698864
H -0.8294045369284055 -2.4727023488430038 -0.883815168807964
H 0.5910885092151557 -3.127954882546445 -0.04072391402980972
H 2.426712349146209 -1.9007159002976153 -0.011039566994082688
H 3.6773776340417017 0.21336766736047758 0.003474863754407327
H 2.458839356899971 2.389069271658858 0.015182626523231754
H -0.017063781040899628 2.3871692635200707 0.012181836102404952
*
