! pbe def2-sv(p) def2/J RI DEFGRID1 loosescf d4 GCP(DFT/SV(P)) printgap
%output
    printlevel normal
end
* xyz 0 1
C -2.1897623711 -0.9125443564 -0.1844424198
C -1.1390139609 -0.3470710551 0.7947719753
H -1.6134432063 -0.3690805609 1.7841753505
C -0.7418540495 1.1171360341 0.5036185124
H -1.5994700057 1.6220679818 0.0366729514
C 0.4558999596 1.2476277471 -0.4530561627
H 0.8153395741 2.2838950986 -0.3868019855
C 1.6044246949 0.326920781 0.0125034181
H 2.4022015096 0.3441195558 -0.7393257673
C 1.0844456576 -1.1181782154 0.1200411273
H 1.8354839108 -1.7437595625 0.6222925814
O -0.0266793321 -1.2264351218 0.9722506887
O 0.8335799348 -1.66971984 -1.1454195789
O 2.1893525913 0.759110897 1.2100059863
O 0.1243707762 1.0044946617 -1.7972507453
O -0.3684072054 1.7828444012 1.6918695782
O -1.7917032559 -0.9319397003 -1.5340095651
H -3.0811487405 -0.2832606455 -0.1390184961
H -2.4476728644 -1.9217410654 0.1517134532
H 0.9063524326 -0.9763760007 -1.8260572617
H 1.4878006448 1.0382997233 1.8242048142
H -0.6864385497 0.4468085729 -1.8520521294
H -1.1355144221 1.8998242112 2.2702173256
H -1.0973354472 -1.6105639276 -1.6363557543
*
