! pbe def2-sv(p) def2/J RI DEFGRID1 loosescf d4 GCP(DFT/SV(P)) printgap
%output
    printlevel normal
end
* xyz 0 1
C -2.5609699202 -0.6663382303 -0.358251055
C -1.1918128044 -0.2929852187 0.2179480488
H -1.2657941757 -0.2423229324 1.3149101454
C -0.7153191578 1.0684540862 -0.3054780467
H -0.7208770929 1.0413044498 -1.4082393411
C 0.7229326896 1.3331097063 0.1815094298
H 0.7043038788 1.4236534654 1.2752036406
C 1.6252716296 0.157767385 -0.2243026119
H 1.6397894953 0.0725812431 -1.3180051464
C 1.0171697611 -1.1429961065 0.3544351602
H 0.9835930127 -1.0738281475 1.4552316245
O -0.287953215 -1.317816938 -0.1570720384
O 1.7570934961 -2.2670086982 0.068267944
O 2.9634665083 0.3377593987 0.1450878463
O 1.1887433802 2.5769297717 -0.2787761903
O -1.5950139258 2.0590939558 0.1556389741
O -3.0908114774 -1.8209302921 0.2355706008
H -2.4601371525 -0.797925178 -1.442859641
H -3.2593682386 0.1456749415 -0.1521109092
H 1.7476220595 -2.4397261009 -0.8863891798
H 3.046186007 0.4004028902 1.1070991598
H 1.4950943986 2.5028627589 -1.1941381117
H -1.1618171438 2.9227114002 0.0545482035
H -2.4580615801 -2.5443965702 0.1150506511
*
