! r2scan-3c def2/J RI DEFGRID2 scfconv6 printgap
%output
    printlevel normal
end
%cpcm
    smd true
    smdsolvent "water"
end
* xyz 0 1
C -2.5356774911 1.0548354029 -0.3515582805
C -1.7782275739 -0.1736701471 0.0510301517
O -2.330656783 -1.2544433598 0.1552333311
C -0.2958849276 -0.0359796965 0.3482355109
C 0.3427605621 1.3003007419 -0.0237533284
C 1.815146629 1.3090074023 0.3865488699
C 2.572428277 0.1664067991 -0.2827574189
C 1.936151057 -1.1726611084 0.0775247469
C 0.4661670432 -1.1871677295 -0.3257594559
H -3.5782428904 0.8011312315 -0.523080636
H -2.464940701 1.8034157337 0.433089769
H -2.1042452851 1.4731432161 -1.2567494401
H -0.2084191504 -0.1763606838 1.4342004705
H 0.2746231615 1.4516590148 -1.1025715768
H -0.1700090566 2.1234304414 0.4737597229
H 2.2650603391 2.2641185554 0.1102332818
H 1.8902097801 1.2048898735 1.4712714063
H 2.5462701072 0.2988783446 -1.3665520771
H 3.6175199277 0.1779589067 0.0313472114
H 2.4611990905 -1.9851562826 -0.4278160324
H 2.0193773007 -1.3380475598 1.1539582558
H 0.3829883677 -1.0788614204 -1.4100802831
H 0.0008401113 -2.1351816851 -0.0493306635
*
