! r2scan-3c def2/J RI DEFGRID2 scfconv6 printgap
%output
    printlevel normal
end
%cpcm
    smd true
    smdsolvent "water"
end
* xyz 0 1
C -3.4487077118 0.5928656242 -0.0565388327
C -1.950048795 0.5165442558 -0.0419893328
C -1.18206723 1.4090658477 -0.6517097657
C 0.3136921482 1.3891954574 -0.6550339004
C 0.8567041906 0.0190470101 -0.2548974282
H 0.5798957311 -0.7014225189 -1.0354269556
C 0.1283257147 -0.4203240316 1.0211487629
C -1.3512671221 -0.6495823402 0.7142202928
H -1.8980616649 -0.7773645652 1.6649389132
O -1.4417022676 -1.8654135521 -0.0245577645
C 2.3561498694 -0.0426884853 -0.0969217279
C 3.1643694554 1.0011148827 -0.2004922473
C 2.9083272893 -1.4132203212 0.1798479236
H -3.8797559139 -0.2637593437 -0.5736829072
H -3.7796628116 1.4960873822 -0.5613469305
H -3.8348896134 0.5972681974 0.9621944739
H -1.6392099754 2.2405835354 -1.1725888087
H 0.6804534722 1.6669755445 -1.6454173454
H 0.6641199074 2.1475222323 0.052596431
H 0.5374844865 -1.3561920349 1.3993270109
H 0.2274212987 0.3479792754 1.788887529
H -2.3623695289 -2.0182162716 -0.2718166999
H 4.2306880504 0.8889311166 -0.0930407896
H 2.8206747058 2.0007385851 -0.3938468245
H 2.8511529792 -1.634794025 1.2450127848
H 2.3396950698 -2.1723825677 -0.3525100377
H 3.9514870324 -1.4748917459 -0.1185773978
*
