! pbe def2-sv(p) def2/J RI DEFGRID1 loosescf d4 GCP(DFT/SV(P)) printgap
%output
    printlevel normal
end
* xyz 0 1
C -2.4223324694 -1.1000277141 -0.3615260789
C -1.0822963257 -0.601071421 0.1978551981
H -1.1494045569 -0.5831353708 1.2972699124
C -0.7495254143 0.8158015253 -0.2963994719
H -0.7319962652 0.8041204085 -1.399491889
C 0.64315049 1.2255077184 0.2177601212
H 0.6065717376 1.2761530188 1.3137613843
C 1.6701284705 0.170101497 -0.2182177488
H 1.7025313564 0.1269225112 -1.3139237724
C 1.2016889458 -1.2102384994 0.3073491117
H 1.1632986376 -1.1860184307 1.4101393738
O -0.0792623228 -1.5071497025 -0.2140082781
O 2.0590077655 -2.2350905433 -0.0195549671
O 2.9776581133 0.4803810649 0.1732626894
O 0.9666798136 2.5288217418 -0.1998147629
O -1.7385404786 1.7044946462 0.15668687
O -3.5213533025 -0.5087940543 0.2752040932
H -2.4935363667 -2.174818045 -0.1825601707
H -2.4494540073 -0.9221972121 -1.44474879
H 2.0238031148 -2.4066495946 -0.9737034551
H 3.0533519078 0.4841665762 1.137897541
H 1.3391940742 2.5130225456 -1.0931135782
H -1.3903168634 2.608971493 0.096169707
H -3.4086079218 0.4560779117 0.2509485859
*
