! wb97x-v def2-tzvp def2/J RIJCOSX DEFGRID2 scfconv7 GCP(DFT/TZ) printgap
%output
    printlevel normal
end
* xyz 0 1
C 1.9989748809624956 0.023372649153553582 -0.6526809530669182
C 1.268854082712024 -0.3024820030901119 0.6450144536116228
C -0.22395159629301767 -0.5533674666758934 0.5137229743919073
H -0.6472815310731953 -0.7818249782457278 1.494221688808151
C -0.614532426674569 -1.606483307240845 -0.49667267097028633
Cl -1.0829678610954097 1.0507204119698779 0.052310146078607525
H 1.5622338441060053 0.8973195011111528 -1.1459862696759275
H 1.9720047718810156 -0.8148386971730911 -1.3549288417460204
H 3.0492898815628107 0.24720857914043018 -0.44496477703846243
H 1.430700248078237 0.4909120671101198 1.3819712712814427
H 1.6841147741907019 -1.2218402921102216 1.0806493670050883
H -0.10869013955824344 -2.542769722526791 -0.23229180762764778
H -1.6922342627847289 -1.784336185418959 -0.48577290897684944
H -0.3137640217162474 -1.328410996301237 -1.5095684387696642
*
