! pbe def2-sv(p) def2/J RI DEFGRID1 loosescf d4 GCP(DFT/SV(P)) printgap
%output
    printlevel normal
end
* xyz 0 1
C -1.3822967984 -0.8727752835 0.2330250514
S 0.002886907 0.1532599749 -0.433966816
O 0.0027850645 1.3998367843 0.3891658785
C 1.3747634718 -0.8708096382 0.2316376315
H -2.0258874784 -1.129571874 -0.6000278783
H -1.9214593002 -0.2577438 0.9446480956
H -1.0076075611 -1.7692717308 0.7086185545
H 1.3300707244 -1.8364882751 -0.2557465407
H 1.2738984777 -0.9570635069 1.3073661628
H 2.3047059922 -0.3687501268 -0.0137727234
*
