! r2scan-3c def2/J RI DEFGRID2 scfconv6 printgap
%output
    printlevel normal
end
%cpcm
    smd true
    smdsolvent "water"
end
* xyz 0 1
C -2.0549428881 0.0500802185 -0.0007171002
C -0.7050033619 0.6970179358 0.0024253525
C 0.452885462 0.0470441383 -0.000692125
C 1.7685200898 0.7660187053 -2.99913e-05
C 0.5333549082 -1.4547854384 0.0010381112
H -2.3714138088 -0.1636329754 -1.0227645037
H -2.0435445332 -0.8875891056 0.5496733702
H -2.7933278392 0.7105957129 0.4471519853
H -0.7042855735 1.7791705069 -0.0114398779
H 1.6284278215 1.8437307018 0.0203869719
H 2.355164819 0.4722068028 0.869787896
H 2.3398195802 0.5045507169 -0.8902406698
H 0.1470006523 -1.8578067959 0.9369157868
H -0.0584754239 -1.8735943107 -0.8106234964
H 1.5624287658 -1.7832983313 -0.1129686196
*
