! pbe def2-sv(p) def2/J RI DEFGRID1 loosescf d4 GCP(DFT/SV(P)) printgap
%output
    printlevel normal
end
* xyz 0 1
C -2.5437816547 -0.9063573001 0.2923628481
C -1.115679426 -0.4696851156 0.6276985806
H -1.0074791595 -0.4184798667 1.7248800155
C -0.8249384175 0.9272196262 0.0369956937
H -1.0640806861 0.9113490493 -1.0311292442
C 0.6577256489 1.2739511441 0.2121923783
H 0.8771145348 1.3881376219 1.2894417804
C 1.5330707313 0.1351865151 -0.3199507554
H 1.372313542 0.0296646939 -1.4028120474
C 1.1183983154 -1.1849859924 0.3460737324
H 1.3058886792 -1.1057964163 1.440861092
O -0.2397333179 -1.4581676929 0.1240417591
O 1.867432917 -2.2070280524 -0.2064147277
O 2.8708735835 0.457220271 -0.0366514074
O 0.924853149 2.4791618844 -0.4557499588
O -1.67026126 1.8898606065 0.6069639149
O -2.7029931149 -0.929019397 -1.1056598099
H -3.2282987765 -0.1847632656 0.7533760119
H -2.7062391872 -1.9042181026 0.7169610982
H 1.4070509113 -3.0504170554 -0.0751175135
H 3.4379352912 -0.2734602465 -0.3243112418
H 1.8840589674 2.6212888627 -0.4546067495
H -1.3301581755 2.1602352535 1.4725864892
H -3.6137834087 -1.1793722986 -1.3149508377
*
