! wb97x-v def2-tzvp def2/J RIJCOSX DEFGRID2 scfconv7 GCP(DFT/TZ) printgap
%output
    printlevel normal
end
* xyz 0 1
C -2.9340370444848696 -4.095712832527447e-05 -0.010562149572988705
C -2.2392452199387574 1.207299682579286 -0.002171937908053012
C -0.8484759901515748 1.212869520075722 0.01722404069632807
C -0.15997661741128133 6.525858349453827e-05 0.032148546474437656
C -0.8483925189145183 -1.2127975618456017 0.017223494236946427
C -2.239153688919389 -1.2073367333842502 -0.0021770825597403807
C 1.3371289211590356 3.7673869483469114e-05 0.006582294197327901
F 1.8682626780925022 1.0893163997877577 0.6134445287378074
F 1.8682249809977063 -1.088160434540206 0.615460491404507
F 1.8250635244535578 -0.0011770172852646193 -1.2683825261219315
H -4.019257648896456 -8.010051716532613e-05 -0.022418278097396934
H -2.7801091543560514 2.14785547179365 -0.008536172866886677
H -0.3055678041068054 2.1518434679362892 0.023629573403914136
H -0.30539889340828147 -2.151728313089167 0.023627732994596008
H -2.7799502237626683 -2.1479315109158934 -0.008556249225713968
*
