! pbe def2-sv(p) def2/J RI DEFGRID1 loosescf d4 GCP(DFT/SV(P)) printgap
%output
    printlevel normal
end
* xyz 0 1
C 0.6673078248 -1.1346928642 -0.3682336059
C -0.6666456975 -1.1351314217 0.3682334655
O -1.4549139919 -0.0004721236 0.0278378283
C -0.6809169606 1.1347072825 -0.342397583
C 0.6802555467 1.1351228257 0.3424087428
O 1.4549112808 0.0004663407 -0.0278544934
H 0.4899760643 -1.1455195737 -1.4523721842
H 1.2571600183 -2.0108374848 -0.0943182931
H -1.2559733539 -2.0116493649 0.0943821503
H -0.4892982298 -1.1457896387 1.4523875611
H -0.545125226 1.1454514855 -1.4325154769
H -1.2598150772 2.0108999463 -0.0461729405
H 1.2586838254 2.0116204635 0.0462018818
H 0.5444265119 1.1458465807 1.4325405239
*
