! pbe def2-sv(p) def2/J RI DEFGRID1 loosescf d4 GCP(DFT/SV(P)) printgap
%output
    printlevel normal
end
* xyz 0 1
C -1.6860792102 -1.3329269704 -0.5919471233
C -1.1479401899 -0.4836371884 0.568913707
H -1.912138749 -0.4399722956 1.3519420446
C -0.8619288381 0.970718078 0.146026635
H -1.1904178414 1.1194105323 -0.8926003643
C 0.641806149 1.2660360264 0.2145008538
H 0.9359316703 1.3686459592 1.2710883288
C 1.4195652048 0.0952001632 -0.3914429401
H 1.0586590303 -0.0837483734 -1.4138420918
C 1.1606595962 -1.1632533802 0.4564971738
H 1.9461673474 -1.232468844 1.2255046938
O -0.0330281284 -1.0972523048 1.1982793365
O 1.1988766513 -2.2681468129 -0.3952806502
O 2.7804372633 0.4446056142 -0.4030305073
O 0.8829095499 2.4627553352 -0.4797529411
O -1.5843838815 1.8224429315 0.9999885493
O -2.8655990783 -0.7330122381 -1.0706101849
H -1.8828136263 -2.3408102978 -0.2071426039
H -0.9303613066 -1.3973488364 -1.3851888229
H 1.1485357967 -3.0892856628 0.1174648646
H 3.2873363443 -0.2191898789 -0.891772465
H 1.8423040236 2.5727449596 -0.5684807029
H -1.4181199161 2.7392954304 0.7344406128
H -3.2570938293 -1.2995008999 -1.7509735565
*
