! wb97x-v def2-tzvp def2/J RIJCOSX DEFGRID2 scfconv7 GCP(DFT/TZ) printgap
%output
    printlevel normal
end
* xyz 0 1
C -1.5860142727299904 -0.11724086087321983 0.51535443362459
C -0.6516631540132305 0.5060389121506225 -0.5187365069437763
C 0.6709750871400525 -0.22223538434579476 -0.6516058567129438
O 1.3803553834808229 -0.1397775804520329 0.6037559530431393
H -1.1568142121874712 -0.07407397116669319 1.5207563160074187
H -2.546358301415902 0.4070152757306019 0.5415021800998042
H -1.7831600564997212 -1.1688436589347466 0.27790586968683983
H -0.4580795744959383 1.557578040056475 -0.2713651426780859
H -1.1290834376995946 0.49649547124428434 -1.50595944049015
H 0.49592838047641963 -1.2765090196657667 -0.9121058395366007
H 1.2740836607067274 0.23221422639892633 -1.4499289012753378
H 2.2011404242762773 -0.6374211603127996 0.5032694016259998
*
