! pbe def2-sv(p) def2/J RI DEFGRID1 loosescf d4 GCP(DFT/SV(P)) printgap
%output
    printlevel normal
end
* xyz 0 1
C -2.295846707 -1.0595711382 -0.0164815001
C -0.9029004163 -0.5091758315 0.3120995696
H -0.9008511998 -0.2252764261 1.3737506634
C -0.5300613373 0.7181068373 -0.5251438726
H -0.4260755033 0.3929256866 -1.5743373901
C 0.8283352844 1.2765070388 -0.0508221961
H 0.6439490178 2.0023440651 0.7488674988
C 1.7150009829 0.1610182716 0.5398597435
H 2.7602727925 0.4023888195 0.2985185181
C 1.3644370196 -1.1723193825 -0.1394661743
H 1.9727681942 -1.9900925112 0.2788094852
O 0.035219919 -1.5611651595 0.092646866
O 1.6335264037 -1.0148241105 -1.5023708007
O 1.5132169055 0.1158826239 1.9265430753
O 1.4818400404 1.9754222433 -1.078307346
O -1.5547714135 1.6713870479 -0.4197806141
O -3.1919118784 -0.6424797432 0.9841199797
H -2.2156309124 -2.1549388937 -0.0352522541
H -2.612194915 -0.7000068832 -1.0015336049
H 1.4665150079 -1.8475529571 -1.9706559061
H 2.1360846018 -0.5013671744 2.337700489
H 1.7284872286 1.3464798357 -1.7748782949
H -1.2758820747 2.4799817964 -0.8747692245
H -4.0945033407 -0.8673416201 0.7179548443
*
