! r2scan-3c def2/J RI DEFGRID2 scfconv6 printgap
%output
    printlevel normal
end
* xyz 0 1
C -2.7603818232 -0.8947059288 -0.0299924728
N -1.8804226063 0.2435482566 0.0250597814
C -0.5203629327 0.1685582071 0.0122104431
C 0.1613980311 -1.0522500749 -0.0555469146
C 1.5421381637 -1.0833485263 -0.0659292858
C 2.2812366899 0.086230693 -0.0098715043
C 1.6158389821 1.3011469022 0.057477606
C 0.2385122628 1.3460380834 0.0685553195
H -3.7885968402 -0.5462031977 -0.0056441043
H -2.5971963687 -1.5605262461 0.8228025961
H -2.6074717232 -1.4671298239 -0.9498851165
H -2.2901777607 1.159057147 0.0740045988
H -0.390059884 -1.9777334433 -0.1001204036
H 2.0488051785 -2.0367878994 -0.1187411526
H 3.3603084101 0.0534983863 -0.0184598319
H 2.1794748703 2.2223591303 0.1017622225
H -0.2708546461 2.2981945919 0.1212689187
*
