! pbe def2-sv(p) def2/J RI DEFGRID1 loosescf d4 GCP(DFT/SV(P)) printgap
%output
    printlevel normal
end
* xyz 0 1
C -2.7583362413 0.729227507 0.8308886887
C -1.3234769288 0.574573126 0.3284966823
H -0.6430108391 0.9284084129 1.1131607312
C -1.0718440411 1.3738955355 -0.9505330585
C 0.3829834445 1.2923863597 -1.4383524249
C 1.0835119667 -0.0019726361 -1.0011661737
H 1.8232135858 -0.267862656 -1.7657196717
C 0.0387973722 -1.1292602749 -0.9571749393
C -0.9626671384 -0.8793970456 0.1344190944
O -1.4233050998 -1.7751243426 0.8176588269
C 1.8452498326 0.0636199289 0.3075414069
C 1.9386349745 1.1269661652 1.0909355097
C 2.5399121601 -1.2151712043 0.6833041859
H -2.9217829765 0.0793284208 1.6871921573
H -2.9515781585 1.7571906507 1.1238477786
H -3.4633592758 0.4485835531 0.0511915261
H -1.7429609975 0.9931347412 -1.7233090097
H -1.3438812508 2.4151804728 -0.7750735478
H 0.3832348258 1.3362882916 -2.5283910372
H 0.9530153663 2.15154515 -1.0907305135
H -0.507775981 -1.139466717 -1.9034076217
H 0.4873803961 -2.1132811756 -0.8241458359
H 2.5196563642 1.0941534479 1.9975684749
H 1.4602925201 2.0678713915 0.8867811722
H 1.8226033424 -1.9219146778 1.1010998195
H 3.0046793211 -1.6769118333 -0.1852114079
H 3.3030323463 -1.0314702848 1.4345415275
*
