! wb97x-v def2-tzvp def2/J RIJCOSX DEFGRID2 scfconv7 GCP(DFT/TZ) printgap
%output
    printlevel normal
end
%cpcm
    smd true
    smdsolvent "water"
end
* xyz 0 1
C -0.4849342581351218 1.4334357035468686 0.00037907218052904364
N -0.42102710420742157 -0.028187538513172086 0.00234007677035139
C -1.6687724174467817 -0.7836674235035752 -0.0009287195535410223
C 0.7699736530241145 -0.6361340789504721 -0.00032842850793505124
O 1.8621254914995455 -0.040459077624169844 -0.003168675250165836
H 0.027132009291959282 1.844215366976882 0.8762600001347992
H -1.531623780409518 1.7386721574024369 0.025490379811889296
H -0.01653053000858093 1.8418913647164668 -0.9010119828694814
H -2.259887276885956 -0.5424867021857753 -0.890869660722209
H -2.2613034094671214 -0.5479605375548419 0.8894914953715347
H -1.4472639677553336 -1.8530812093518827 -0.004209315303926836
H 0.7090959900283889 -1.736802491212785 6.476718299078802e-05
*
