! r2scan-3c def2/J RI DEFGRID2 scfconv6 printgap
%output
    printlevel normal
end
* xyz 0 1
C -2.5794097868 -0.2642612898 7.855e-07
C -1.8720244434 -1.4763075569 -4.2655e-06
C -0.5070302235 -1.4533887198 -6.7755e-06
C 0.202374974 -0.2345205294 -4.3382e-06
C -0.5033716938 1.0027433253 -9.21e-07
C -1.9170545916 0.9307788985 6.0819e-06
N 0.0921676869 2.1954822111 1.7862e-06
N 1.5899003215 -0.3015552595 -5.324e-07
O 2.1431657114 -1.406424998 1.25604e-05
O 2.2645395145 0.7395403192 -8.2875e-06
H -3.6578018984 -0.2803359527 1.70611e-05
H -2.4016311152 -2.4140634783 -1.1861e-06
H 0.072671928 -2.3633265356 -7.387e-06
H -2.4671734484 1.8583426674 8.8261e-06
H 1.1008968582 2.2511214974 -9.506e-07
H -0.4704901565 3.0293419249 1.07895e-05
*
