! pbe def2-sv(p) def2/J RI DEFGRID1 loosescf d4 GCP(DFT/SV(P)) printgap
%output
    printlevel normal
end
* xyz 0 1
C -2.1540579969 -1.0181524736 -0.4878699144
C -1.2166451919 -0.182288003 0.404055342
H -1.7732439299 0.1953955936 1.2711245449
C -0.6448467339 1.0268102546 -0.362330477
H -0.544719139 0.7861242655 -1.4300573259
C 0.7544387972 1.3360894021 0.1841009971
H 0.689241914 1.4629100407 1.2760866981
C 1.673493514 0.1516138055 -0.1251261351
H 1.8648266118 0.1377925985 -1.2086488286
C 0.9778831776 -1.1724168436 0.2486823164
H 1.6423024537 -1.7115516699 0.9393266633
O -0.1949493414 -0.9841671162 0.9944751987
O 0.7584650816 -1.8926563131 -0.9227378508
O 2.8796994304 0.2255673945 0.5868202179
O 1.3052997961 2.4827938049 -0.409768271
O -1.4253927219 2.1845891043 -0.1835295022
O -2.6370381436 -2.1727575281 0.148063338
H -1.6086863083 -1.3685479368 -1.3665867465
H -2.986445946 -0.3801496875 -0.8147981204
H 0.4590098256 -2.7896833038 -0.7060794866
H 3.3008072138 1.076163136 0.3874543973
H 0.6459448417 3.1925866558 -0.360827648
H -2.2403723553 2.1275490284 -0.6998961383
H -3.0734431191 -1.930330402 0.9769517198
*
