! wb97x-v def2-tzvp def2/J RIJCOSX DEFGRID2 scfconv7 GCP(DFT/TZ) printgap
%output
    printlevel normal
end
* xyz 0 1
C -0.9962540119538786 -1.816710394734866 5.313808972486523e-05
C 0.378395301771721 -1.6076920306150517 -0.0001777885167082629
C 0.8727212477623728 -0.2979520620621357 -0.00034911544060923914
C 0.003205653671778688 0.7976514293714138 6.23691321362484e-05
C -1.3664251199957624 0.5718159531182099 0.00012897043203070164
C -1.8702244367671048 -0.7351228708693965 0.00011729275850822039
O -2.191696352663172 1.6674124030924171 9.459283625911281e-05
C 2.325468569173877 -0.10147042420289552 -0.0015702228417734914
O 2.881575262131122 0.9910343571758932 0.000366012954878543
H -1.3971270884078908 -2.8248998404267924 0.00010350256405679612
H 1.0693430536072546 -2.4451064803780556 -0.00022176468826585647
H 0.39192151310399403 1.8106568377849146 -7.381787827387108e-05
H -2.945190986929293 -0.8940138893952081 0.00016826755033243898
H -3.1137568657800423 1.3738350394910426 0.00010547126288033526
H 2.9230909441594592 -1.033716139816655 0.0014416787223915629
*
