! pbe def2-sv(p) def2/J RI DEFGRID1 loosescf d4 GCP(DFT/SV(P)) printgap
%output
    printlevel normal
end
* xyz 0 1
C -2.0848094335 -1.2166044832 -0.2220094117
C -1.2557810582 -0.3684724861 0.7542981456
H -1.8656429253 -0.2364859816 1.6548237161
C -0.9201568776 1.0197754606 0.1644930051
H -1.1861075123 1.0477538502 -0.8973436091
C 0.5890607312 1.2835923101 0.2776502782
H 0.8705708934 1.325378837 1.3456715607
C 1.3329942889 0.1163574581 -0.3817329238
H 0.9887838681 0.0188804634 -1.4175312976
C 1.0013221308 -1.1899201857 0.3894090302
H 1.8325313509 -1.4363751611 1.0613589587
O -0.1008709704 -1.0307882471 1.2581221947
O 0.8670435249 -2.2852136133 -0.4475028707
O 2.7162523798 0.3201595244 -0.4772434007
O 0.9407226126 2.4886166613 -0.3526241561
O -1.660185366 2.0587366459 0.7541355958
O -1.4592933057 -1.2735931591 -1.4916756368
H -3.069385809 -0.746010478 -0.3055073267
H -2.1901586488 -2.2228588375 0.1999175231
H 0.1379101436 -2.1068950547 -1.0788459225
H 3.0618382498 0.6624167961 0.3595653452
H 0.2303856556 3.1324698847 -0.2005602704
H -1.505372882 2.0759524548 1.7106029285
H -2.0625367383 -1.6921681734 -2.1225399032
*
