! wb97x-v def2-tzvp def2/J RIJCOSX DEFGRID2 scfconv7 GCP(DFT/TZ) printgap
%output
    printlevel normal
end
%cpcm
    smd true
    smdsolvent "water"
end
* xyz 0 1
C -2.648952315122629 0.03080220293915759 -0.3252726392433618
O -1.3879380460460602 0.5880015186755839 0.1383920831073181
C -0.4314179993730968 -0.3017247970011167 0.42128572419075466
O -0.564124986374281 -1.5084636437627559 0.344115325343938
C 0.8500389520788671 0.37903760208171744 0.8359940592371757
Cl 1.8176633510234783 0.6872673825645024 -0.6789481773855925
H -3.300371509237365 0.8891091662527874 -0.4812943674014825
H -3.0635812228412447 -0.6353020556226056 0.43428167006375784
H -2.4913718097487965 -0.5100553010217088 -1.2611576348187845
H 1.43661699309627 -0.28272491490839213 1.4718202634018565
H 0.6700764171689165 1.3417863229759774 1.3138875948248825
*
