! pbe def2-sv(p) def2/J RI DEFGRID1 loosescf d4 GCP(DFT/SV(P)) printgap
%output
    printlevel normal
end
* xyz 0 1
C -2.1987868648 -0.9828522541 -0.4288279737
C -1.1810908773 -0.1929223231 0.4110157181
H -1.6892185234 0.2326636411 1.2853804832
C -0.6015612231 0.9691424431 -0.405333135
H -0.4470262327 0.6494643273 -1.4449704116
C 0.7697662118 1.328291112 0.1948960411
H 0.6692713051 1.4404915352 1.2833010387
C 1.7150435936 0.1571420526 -0.0904241252
H 1.9676039346 0.1724163185 -1.1608716127
C 1.0045389788 -1.1800273847 0.2045313184
H 1.6651045539 -1.7669128094 0.8587425986
O -0.1648937513 -1.0254192337 0.9641318195
O 0.7733748397 -1.8243588819 -1.0083815678
O 2.8772006664 0.2144667635 0.6931099318
O 1.3254167793 2.4870552872 -0.3795888411
O -1.5155950525 2.0364145829 -0.3429351917
O -2.7780521288 -2.060033075 0.2603865371
H -1.7000558202 -1.4175595062 -1.2972065714
H -2.9644646986 -0.2741439089 -0.7716962886
H 0.4804602181 -2.7347085642 -0.8460130234
H 3.3317799892 1.0516144056 0.5108622269
H 0.8649689413 3.2661057947 -0.0356780552
H -1.319688527 2.668493099 -1.0498283336
H -3.2085873158 -1.7366597936 1.0641585869
*
