! pbe def2-sv(p) def2/J RI DEFGRID1 loosescf d4 GCP(DFT/SV(P)) printgap
%output
    printlevel normal
end
* xyz 0 1
C -2.5536515201 -0.7011505511 -0.3218598651
C -1.1629522114 -0.3189023135 0.1798435457
H -1.196459263 -0.2528369164 1.2780132163
C -0.700710262 1.0274871233 -0.3931463079
H -0.6703576377 0.9378477477 -1.4927635332
C 0.7112259585 1.3274069072 0.1273907524
H 0.6587601205 1.4904339228 1.2106049366
C 1.6708443106 0.158451144 -0.1415288124
H 1.871327917 0.0762113584 -1.2218870022
C 1.0418686421 -1.1729739706 0.3018417769
H 1.0068884669 -1.1819122826 1.4113701363
O -0.2596376278 -1.3321764257 -0.2132928436
O 1.8142701065 -2.2026555997 -0.1894967328
O 2.868573567 0.3191166663 0.5715135165
O 1.208064555 2.5333522484 -0.4031079598
O -1.6058860685 2.0310608967 -0.0151477127
O -3.0793148233 -1.6983124638 0.522013307
H -2.4555362976 -1.0667369004 -1.3502817274
H -3.1761123138 0.2008756777 -0.2991717049
H 1.3645585644 -3.0478801549 -0.0298910622
H 3.2200942492 1.2068760272 0.3951597581
H 1.301748142 2.4565115385 -1.3651501358
H -1.1643754828 2.8926831105 -0.0941801402
H -3.9405340678 -1.979479117 0.1817383966
*
