! pbe def2-sv(p) def2/J RI DEFGRID1 loosescf d4 GCP(DFT/SV(P)) printgap
%output
    printlevel normal
end
* xyz 0 1
C -2.3559613309 -0.7646071118 0.7185277031
C -0.8892674604 -0.3119192274 0.7486635951
H -0.6508021672 0.0426640453 1.7618713931
C -0.6152919229 0.8294262327 -0.2329599676
H -0.7291469252 0.4590698454 -1.2612560977
C 0.8324600298 1.3107509859 -0.0423986516
H 0.8418765159 1.971261113 0.8386944458
C 1.7799411202 0.1364466679 0.2861091417
H 2.7025971445 0.259333745 -0.2997886999
C 1.166903556 -1.2072476808 -0.1389622781
H 1.8004583184 -2.0335053905 0.2259142937
O -0.0875921308 -1.4522229608 0.4457508935
O 1.1172182373 -1.2136000883 -1.5312214869
O 2.0399362528 0.1798213749 1.6653709466
O 1.1979112344 2.0112030021 -1.2026512886
O -1.5246561757 1.8675329537 0.0286756588
O -2.7127964194 -1.3656517895 -0.4982149238
H -2.9905966814 0.114101712 0.8359542447
H -2.5236607764 -1.4562462268 1.5529345728
H 0.8411107356 -2.0836471595 -1.8570464707
H 2.6819781343 -0.5025257107 1.9109443744
H 2.047619673 2.4553658003 -1.0712600548
H -1.3908217443 2.5648578598 -0.6295583358
H -2.13932588 -2.1354298726 -0.6248215195
*
