! wb97x-v def2-tzvp def2/J RIJCOSX DEFGRID2 scfconv7 GCP(DFT/TZ) printgap
%output
    printlevel normal
end
%cpcm
    smd true
    smdsolvent "water"
end
* xyz 0 1
C -1.9612982615472718 0.48345069158562465 0.10070854865110297
C -0.8978469427784518 -0.572062681183758 -0.17499689162375923
C 0.5506996076597842 -0.16319639324629864 -0.03222935354533689
O 1.4580408708301251 -1.0054686597793254 -0.1729493439029896
N 0.8179965661964048 1.124197951209676 0.24050932717028403
H -1.889848288140756 1.3248824305703566 -0.5960641494652327
H -2.9556008825485987 0.044579239105185346 -0.018095242866410333
H -1.8922383097893776 0.8695014889028418 1.1229451385695237
H -0.9979415007793335 -0.9600758640690434 -1.196187452361877
H -1.0308154202820654 -1.4363371035748975 0.48571220832764705
H 0.08534050909306697 1.8048539410214308 0.3616665764569873
H 1.7783305192156351 1.4204707519669437 0.33450054591068124
*
