! wb97x-v def2-tzvp def2/J RIJCOSX DEFGRID2 scfconv7 GCP(DFT/TZ) printgap
%output
    printlevel normal
end
* xyz 0 1
C -2.690762676626087 -0.9693604893428827 0.000957693197743954
S -1.842109518812643 0.6433069917708873 -0.00041517346448280803
C -0.11867964163261759 0.20589488485717236 -0.0002569639357038336
C 0.8001959256053137 1.2660716139979897 9.32670853387814e-05
C 2.164438326791322 1.0061275702976993 0.00021795056800107267
C 2.6363033803087874 -0.3068533254108523 1.7357047446255448e-05
C 1.7231533819754552 -1.356435636223199 -0.00035360675064388436
C 0.35070091661538483 -1.1110657256881353 -0.0005016504388964461
H -2.452270645418966 -1.544038242055756 0.8993088600938727
H -2.4534418524533206 -1.5450739128389683 -0.8970339513962441
H -3.759352373427336 -0.7395691100066071 0.001521791852665042
H 0.4465284578919692 2.293330368356054 0.00031540269334827544
H 2.863067829906298 1.8372046935257118 0.0005275278143114431
H 3.7027090286145015 -0.506411464027334 0.00015994376797684017
H 2.0742376206358237 -2.3839269473382028 -0.0005469017395627173
H -0.3362107191380567 -1.9489054807739064 -0.0008316601473344412
*
