! pbe def2-sv(p) def2/J RI DEFGRID1 loosescf d4 GCP(DFT/SV(P)) printgap
%output
    printlevel normal
end
* xyz 0 1
C -2.390032089 -1.18229107 -0.2456718737
C -1.0795090961 -0.6292052237 0.3466532567
H -1.1276727374 -0.6163357139 1.4473701741
C -0.8036950643 0.8142569962 -0.1075516303
H -0.973925536 0.8977420576 -1.1905884643
C 0.6480781055 1.2241854384 0.1867219369
H 0.7672455875 1.3324434003 1.2773313105
C 1.6316677474 0.1555330958 -0.291382733
H 1.5740050258 0.0766565255 -1.3884901103
C 1.2251862085 -1.1959470511 0.3264674901
H 1.2907006805 -1.118596248 1.4258915824
O -0.0774891199 -1.5318231798 -0.0785429522
O 2.0799044023 -2.2133229367 -0.0581493547
O 2.9239819918 0.5359731672 0.1099187223
O 0.8670632931 2.4616742133 -0.4455828778
O -1.6885643518 1.6450840675 0.600531203
O -3.4454903064 -0.2657035132 -0.3057750689
H -2.6751831363 -2.0753051929 0.3263538999
H -2.1888480946 -1.4844782013 -1.2765932538
H 1.7664440574 -2.5897641601 -0.8959081465
H 3.5219224339 -0.2200682652 0.0061345542
H 1.7989952013 2.7023371521 -0.3378534981
H -1.5412193606 2.5603792366 0.3200976872
H -3.5240995025 0.1984797893 0.5405391439
*
