! pbe def2-sv(p) def2/J RI DEFGRID1 loosescf d4 GCP(DFT/SV(P)) printgap
%output
    printlevel normal
end
* xyz 0 1
C -2.5223097662 -0.9945222989 0.3312315273
C -1.0798526065 -0.5146089612 0.5796740494
H -0.9266828245 -0.4412344933 1.6685019423
C -0.7998147649 0.8574277874 -0.0464748003
H -0.9144233959 0.7754273093 -1.138477162
C 0.6537462488 1.2465725709 0.2413537786
H 0.7826756506 1.3549574901 1.3327339142
C 1.5959985334 0.1458232192 -0.2705280946
H 1.5189501157 0.0798766474 -1.3612805306
C 1.1665094523 -1.2087401531 0.3192650683
H 1.3101682491 -1.174651665 1.4256829344
O -0.1876661894 -1.4775841881 0.0506404392
O 1.927653352 -2.2138177662 -0.24060286
O 2.9336422367 0.4685559733 0.0011732662
O 0.9122383168 2.4786161874 -0.3869554822
O -1.7078027661 1.7883489889 0.4822947735
O -3.0060410266 -0.7346812379 -0.9585129765
H -3.1660378129 -0.535067355 1.0874477338
H -2.5344304312 -2.0798472838 0.4481789938
H 1.4461583389 -3.0536812871 -0.174858498
H 3.1518951017 0.264564535 0.9222756564
H 1.872058426 2.5935701893 -0.4606939885
H -1.4160534237 2.6754043766 0.2207967165
H -3.2200630607 0.2063238605 -1.0297221592
*
