! wb97x-v def2-tzvp def2/J RIJCOSX DEFGRID2 scfconv7 GCP(DFT/TZ) printgap
%output
    printlevel normal
end
%cpcm
    smd true
    smdsolvent "water"
end
* xyz 0 1
C 3.648044177242754 0.710565816198071 -0.00042155811671228225
C 3.6480350210987993 -0.7106007251619315 -0.0002198576604159203
C 2.468979236643004 -1.405828001013582 0.00011386845667271906
C 1.2191848733439787 -0.7215939648995349 0.00018825816048545664
C -1.5476052199317838e-05 -1.4051480335790953 0.00020579855563767453
C -1.2192093320003987 -0.7215720654977683 8.069359094194468e-05
C -2.4690112960940396 -1.4057828878544942 -0.0002351422014564916
C -3.648059126606791 -0.7105343355142044 -0.00044314548578149943
C -3.6480438410996476 0.7106269353136953 -0.00025391609963255923
C -2.4689785241181457 1.405842979818351 6.495040312270852e-05
C -1.2191965473570765 0.7215996573604502 0.0001612156037193966
C 8.241144497183143e-06 1.4051525294109597 0.0001939257366414487
C 1.219196496690994 0.7215795625726085 9.57883589856945e-05
C 2.4689956922275518 1.40580236095427 -0.00021345660123753306
H 4.594221497778085 1.2426044473700868 -0.000768823422504153
H 4.594205733777868 -1.2426511799749496 -0.000331617841854293
H 2.464873902436366 -2.4922497511839277 0.00027345912582163337
H -2.898917699342699e-05 -2.492396469597869 0.0002192234050315801
H -2.464937442389924 -2.4922050609544217 -0.00037024394421201746
H -4.594233533216423 -1.2425789262499731 -0.0007699644952029695
H -4.594204637000705 1.2426948010131993 -0.0003724902588831297
H -2.464864682212157 2.4922639910143496 0.00020525089612973962
H 1.2045891853500755e-05 2.492400227757289 0.00020049753598988139
H 2.4648931855847906 2.492223840735175 -0.000357229932610711
*
