! pbe def2-sv(p) def2/J RI DEFGRID1 loosescf d4 GCP(DFT/SV(P)) printgap
%output
    printlevel normal
end
* xyz 0 1
C -3.2617731681 -0.4502058469 -0.8526565672
C -1.7673493595 -0.2853950346 -0.5853861815
H -1.2617608786 -0.2013232189 -1.5529101864
C -1.2050057403 -1.49604665 0.1791195288
C -0.1505105274 -1.1025171724 1.216487514
C 0.7773304694 0.0114810785 0.7288636638
H 1.4892891479 0.2649797034 1.5230876703
C -0.0457399253 1.2478250536 0.4476999904
O 0.4305270167 2.3694147568 0.4486092509
C -1.5064503111 1.0116720392 0.1834340057
C 1.6214413299 -0.3533914609 -0.5216926329
C 2.6735135176 0.7229098213 -0.7840876954
C 2.3178433214 -1.7030502834 -0.3505124383
H -3.6408989377 0.3837569622 -1.4384961975
H -3.4452099913 -1.3686256457 -1.4045515565
H -3.8140587106 -0.4923315153 0.083322608
H -2.0177598837 -2.0093655538 0.6954017933
H -0.7798404125 -2.2020922861 -0.5345573131
H -0.6470619801 -0.7456247797 2.1212895519
H 0.4330080163 -1.9772785661 1.4994251855
H -2.0050057562 0.9659078561 1.1557927674
H -1.9110162102 1.8747924635 -0.3488416052
H 0.9592085935 -0.4085254634 -1.3905532638
H 3.1840328448 0.5294412108 -1.7244300715
H 3.4122885198 0.7304293431 0.014711806
H 2.2232738675 1.7113119628 -0.8362186297
H 2.8944854073 -1.7184343346 0.5713354021
H 2.9995965733 -1.8635879608 -1.1821813907
H 1.6081962118 -2.5241585138 -0.3362411715
*
