! wb97x-v def2-tzvp def2/J RIJCOSX DEFGRID2 scfconv7 GCP(DFT/TZ) printgap
%output
    printlevel normal
end
* xyz 0 1
C 0.7263816775206788 -1.200967062236457 -0.21802079342535624
C -0.7265312093495631 -1.2008666510477117 0.21798515462934093
N -1.4053729644737811 8.345820475535336e-05 -0.30294410429660734
C -0.7263405944774144 1.2009085491288323 0.21802364967947016
C 0.726566242808231 1.2007935696430418 -0.2179992921411952
N 1.4053986090440376 -0.00014333628830705646 0.3029641851929546
H 0.769436191852473 -1.2528342129841368 -1.3207001866263854
H 1.2233869347346082 -2.094085073209902 0.17507775326804803
H -1.2236728115900806 -2.0938893142238313 -0.17515873917659755
H -0.7695917038011046 -1.252783349096034 1.320661212484388
H -2.352350977921966 0.00015189726872218436 0.0639164389758422
H -1.223349243226574 2.0940240599466002 -0.17507684965140907
H -0.7693774245455105 1.2527871806629434 1.320702671556041
H 0.7696130604374587 1.252664854237354 -1.3206790409500933
H 1.2237173964000407 2.0938293588148684 0.17510112581450066
H 2.3523960370224266 -0.0002140888199299166 -0.06384695998873861
*
