! r2scan-3c def2/J RI DEFGRID2 scfconv6 printgap
%output
    printlevel normal
end
* xyz 0 1
C -2.5495990806 -0.9001539235 0.3282754909
C -1.1204889327 -0.4320431694 0.6455512509
H -0.986145873 -0.3648780201 1.7377564056
C -0.8308160509 0.938274537 0.0134970281
H -1.0647662252 0.8896365719 -1.0555638069
C 0.6506736837 1.2926486681 0.1961849502
H 0.851229588 1.4456750416 1.2722602228
C 1.5627178858 0.1595872344 -0.2899281228
H 1.4858404805 0.0747271415 -1.3829230003
C 1.1230172148 -1.1778820459 0.3215217719
H 1.3379838742 -1.1427460661 1.4099854236
O -0.2518202386 -1.4205304372 0.1225329736
O 1.8165207377 -2.191030283 -0.3000267119
O 2.8903024013 0.3829648986 0.1039370197
O 0.9954209827 2.4565563566 -0.5166023713
O -1.6495709158 1.9539790839 0.534249382
O -2.7358626685 -1.1227695907 -1.0434751836
H -3.2553539707 -0.1177212828 0.6117470184
H -2.7587902082 -1.8119816236 0.9006818974
H 1.511627985 -3.051829456 0.0293980622
H 3.1854820085 1.2204651191 -0.2856670637
H 0.2770260408 3.1014963296 -0.4245140633
H -1.5366876134 2.0111553734 1.4951955696
H -2.0759736973 -1.7683808139 -1.3369268832
*
