! r2scan-3c def2/J RI DEFGRID2 scfconv6 printgap
%output
    printlevel normal
end
%cpcm
    smd true
    smdsolvent "water"
end
* xyz 0 1
C -2.3298751333 -1.0491544305 0.5352100938
C -1.4724523821 -0.0085836692 -0.129689045
O -1.6954320053 0.3630795718 -1.2656617802
C -0.3563633287 0.5764836167 0.715790226
C 0.5393218706 1.5195850033 -0.0937844189
C 1.4036972518 0.7500455913 -1.0900943749
C 2.2380756342 -0.3116997647 -0.3806970833
C 1.3304726062 -1.2655089275 0.3895355897
C 0.4987550047 -0.4922884704 1.4088000495
H -3.2700356732 -1.1423062691 -0.002282214
H -1.8158596237 -2.0073894884 0.4921872187
H -2.5113023506 -0.8007463152 1.5758686227
H -0.8710431547 1.1614046284 1.489131307
H -0.0848970544 2.2353739019 -0.6325411618
H 1.1821787984 2.0734179679 0.5930659157
H 0.7564868685 0.274376477 -1.8301360891
H 2.0559580399 1.4472521464 -1.6196044211
H 2.8300693849 -0.8659285949 -1.1113909909
H 2.9281548399 0.1727556032 0.3139236111
H 0.670739198 -1.7777250112 -0.3152575351
H 1.9303462665 -2.0206209114 0.900834744
H -0.1261157939 -1.1738462203 1.9841370798
H 1.1729724006 0.0105379394 2.1049856934
*
