! pbe def2-sv(p) def2/J RI DEFGRID1 loosescf d4 GCP(DFT/SV(P)) printgap
%output
    printlevel normal
end
* xyz 0 1
C -2.5443374301 -0.9171743717 0.3064284291
C -1.1160522281 -0.4703723424 0.6245048133
H -1.0051524005 -0.3877928172 1.717716266
C -0.8218769605 0.9035294188 0.0090032634
H -1.0534145303 0.8503012667 -1.0664616252
C 0.6607692349 1.2751747258 0.1894917963
H 0.8649194498 1.4317588851 1.2555569812
C 1.5501308691 0.1387590449 -0.3173681266
H 1.4019113683 0.0091722423 -1.4018741668
C 1.1211640241 -1.1752297581 0.3607667338
H 1.2971782626 -1.0802353367 1.4549456982
O -0.2348725734 -1.4582041516 0.1302359106
O 1.8781737678 -2.1987649122 -0.1772136051
O 2.8892879081 0.4383392888 -0.0288920922
O 0.9314083183 2.5119851401 -0.4198006141
O -1.6478100766 1.8479403665 0.6426340687
O -2.7360762246 -0.9083984652 -1.0882016575
H -3.224996704 -0.2149960282 0.8014662667
H -2.6820239957 -1.9259481436 0.7119929777
H 1.4551084825 -3.0500952799 0.0144513857
H 3.4394300667 -0.319916004 -0.2784939577
H 1.0197548126 2.3982704099 -1.3773229975
H -1.3197158532 2.7331295198 0.4165994918
H -3.631879535 -1.217295591 -1.2837791351
*
