! pbe def2-sv(p) def2/J RI DEFGRID1 loosescf d4 GCP(DFT/SV(P)) printgap
%output
    printlevel normal
end
* xyz 0 1
C -2.3649897257 -0.9144357417 0.4480595618
C -0.9137007644 -0.4537331693 0.6004614049
H -0.6292098051 -0.556117621 1.6594744873
C -0.7387403846 1.0237919403 0.1849018631
H -1.5021225101 1.2696320339 -0.5603486972
C 0.6602027573 1.236174516 -0.4329315038
H 0.9392289948 2.2881522653 -0.263817724
C 1.6672238942 0.3342122311 0.2918932834
H 2.6610377397 0.490265628 -0.1460853205
C 1.2834572667 -1.1455631624 0.0235354993
H 1.5991965781 -1.7611263869 0.8846030899
O -0.1022960395 -1.3100796969 -0.1834463735
O 1.9449725289 -1.6523953999 -1.0777198033
O 1.6463582708 0.6652201479 1.6583834698
O 0.7337552194 0.9132720648 -1.7968154797
O -0.9557030877 1.8938691795 1.2644663355
O -2.8286548922 -0.6085837171 -0.8461658362
H -2.9639636538 -0.3906806834 1.2046273141
H -2.3943933511 -1.9938813714 0.6301755568
H 1.6036688448 -1.1997184556 -1.8685689034
H 2.4331884793 0.3141090097 2.0984473185
H 0.0709604379 1.4175385307 -2.2894920191
H -0.2453955316 1.7620723997 1.9132390992
H -3.6871019096 -1.0321937085 -0.9833993617
*
