! pbe def2-sv(p) def2/J RI DEFGRID1 loosescf d4 GCP(DFT/SV(P)) printgap
%output
    printlevel normal
end
* xyz 0 1
C 1.6775300393 -1.209133311 0.0464908878
C 0.9403604579 0.012564623 -0.4905970709
H 0.9004945395 -0.0147295134 -1.5890891483
C -0.5220310738 -0.022186367 -0.0164679138
F -1.1892128006 -1.0878113859 -0.4948615338
F -0.6529444535 -0.0568792045 1.3165659849
F -1.2101125284 1.0624179016 -0.4316147245
O 1.5642670058 1.1721986514 -0.0203459139
H 2.6985867767 -1.1876809803 -0.3189925228
H 1.1877848352 -2.1192755458 -0.2851208831
H 1.6934885415 -1.1743046275 1.132529283
H 1.2463858261 1.9628198773 -0.4808117235
*
