! pbe def2-sv(p) def2/J RI DEFGRID1 loosescf d4 GCP(DFT/SV(P)) printgap
%output
    printlevel normal
end
* xyz 0 1
C -2.2796730677 -0.722647341 -0.7371220427
C -1.0917490463 -0.5719232167 0.2243183865
H -1.3449075055 -0.9830631878 1.2169211544
C -0.7169108489 0.9158883505 0.4281986893
H -1.5750872889 1.5197546824 0.110755465
C 0.5005289148 1.2703503712 -0.4345891606
H 0.7888971339 2.3060558332 -0.2007331667
C 1.6882031839 0.3670822162 -0.0315249831
H 2.4075563924 0.3334498358 -0.8609961357
C 1.2089996775 -1.084969945 0.2500415906
H 1.144866585 -1.221079231 1.3462879209
O -0.0384392161 -1.3340521327 -0.3390212788
O 2.1060854947 -2.0267086778 -0.2309520231
O 2.2749857481 0.9403138745 1.1145387153
O 0.1459769306 1.1316516162 -1.7827365823
O -0.4934478695 1.2198464111 1.7852339982
O -3.4389253682 -0.0789820369 -0.2833143822
H -2.4502809837 -1.7917038425 -0.909432564
H -2.0114186876 -0.2513959479 -1.6847180806
H 1.8088762744 -2.3134480563 -1.1085395043
H 3.0993836123 0.4809721588 1.3309376229
H 0.8273833034 1.5240682742 -2.3477285662
H 0.4588281464 1.1797130711 1.9773060431
H -3.7539847895 -0.5059850015 0.5263291241
*
