! wb97x-v def2-tzvp def2/J RIJCOSX DEFGRID2 scfconv7 GCP(DFT/TZ) printgap
%output
    printlevel normal
end
* xyz 0 1
C -3.238847095798829 -0.027933597708779737 0.9800600567553465
O -1.7990975978212358 0.002426493756003444 0.8080008153134648
C -1.3519223153806226 -0.126139469931189 -0.4553773509059496
O -2.102644816399826 -0.2673936193825757 -1.4090766917484379
C 0.1490971549759514 -0.07120081251723302 -0.5402819422049763
C 0.8103662482090157 -1.2046264299942238 0.2647343970111897
C 2.330648382397647 -1.1473893131445663 0.10730513618541031
C 2.8806791415682707 0.2148120460586229 0.534231924230451
C 2.2063058461336196 1.3488774516975501 -0.2399076552896963
C 0.6858751981250918 1.2984059629525697 -0.08348553572651062
H -3.4042602464400358 0.09737890906721586 2.0495087839369406
H -3.6398104706573084 -0.9865922132091074 0.6423843181459792
H -3.702373137442564 0.7905066290987768 0.42419418496511074
H 0.3912618009188074 -0.20626775231861963 -1.6007021876392928
H 0.5460229655766469 -1.094734727036448 1.323684933835923
H 0.42406186846868754 -2.1735419640264015 -0.0721603384421819
H 2.791324957723566 -1.9472378176718437 0.6981105963709452
H 2.5928243911130835 -1.3323864761900173 -0.9433802769806731
H 2.699522253554315 0.3554496051970098 1.6088537013719337
H 3.9658695314980115 0.24800157208514428 0.38441286763740695
H 2.5784683425212447 2.320373713415063 0.1046580615575628
H 2.463170786838506 1.2661863481861342 -1.3049228272589657
H 0.41925853414772557 1.4540859261260246 0.9690840890236812
H 0.2113431608391407 2.0964156149826167 -0.6661072187034021
*
