! pbe def2-sv(p) def2/J RI DEFGRID1 loosescf d4 GCP(DFT/SV(P)) printgap
%output
    printlevel normal
end
* xyz 0 1
C 1.6860757609 -1.0704202641 0.1617982816
C 1.0396236757 0.2595990697 -0.2101935136
C -0.4589568762 0.3418333891 -0.0394236249
O -1.0506003528 1.4007001639 -0.0705531669
O -1.1380962796 -0.7846992117 0.1354708957
H 1.3908811229 -1.8660683661 -0.5183425704
H 2.7655064635 -0.968941867 0.0910360201
H 1.446095545 -1.3494755798 1.1852584369
H 1.4618953608 1.0751604172 0.3795982322
H 1.2400310337 0.5003805278 -1.2575608529
H -0.5732036766 -1.5805474184 0.1360077728
*
