! r2scan-3c def2/J RI DEFGRID2 scfconv6 printgap
%output
    printlevel normal
end
* xyz 0 1
C -2.9730487891 1.2547324347 -0.000766692
C -1.7489545518 0.3889931194 0.0005425107
C -1.8366462659 -0.9905439103 0.0004683122
C -0.6888516284 -1.7697801601 0.0001398531
C 0.5628157994 -1.1841548795 -0.0001148914
C 0.6666380739 0.2197322621 -2.96028e-05
C -0.4876631154 0.9822530416 0.0003075569
O 1.9421114798 0.7177486019 -0.0002036314
C 2.1130654548 2.1200525512 0.0003985076
O 1.7198377166 -1.9091143588 -0.0003394797
H -2.9742500319 1.9110165441 0.8676730273
H -2.9933554757 1.8799164704 -0.8918229382
H -3.8736098849 0.6479220682 0.019219296
H -2.8023510085 -1.472140426 0.0006442019
H -0.7709094555 -2.846820131 0.0001524417
H -0.4252216682 2.0587693177 0.0003839422
H 1.6768947623 2.5713468991 0.8958896407
H 1.675571298 2.5724058379 -0.8938982341
H 3.189611689 2.2752172203 -0.0003316411
H 1.5143767861 -2.8563998958 -0.0005564284
*
