! wb97x-v def2-tzvp def2/J RIJCOSX DEFGRID2 scfconv7 GCP(DFT/TZ) printgap
%output
    printlevel normal
end
* xyz 0 1
C 2.5042422818507295 0.05400237432694972 0.05739401702500853
C 1.0056898926331437 0.07562873937491077 0.008881077485201191
C 0.3049507111184934 1.2120589775325117 -0.10021456194151888
C -1.196341150545988 1.2830434388125562 -0.10941990293249741
C -1.836415682768474 -0.028978802944576262 0.34784856768188305
C -1.1447553589108257 -1.2163816582387335 -0.318835130509866
C 0.32806782333225737 -1.2696048173174876 0.08764787294460055
H 2.855172061173077 -0.4658005892954215 0.9585378796679039
H 2.927279945458297 1.0626722341665191 0.05383280593915366
H 2.9146116845598398 -0.4984206376697835 -0.7976889625185954
H 0.8451346634517547 2.1556952984639253 -0.17896282039463562
H -1.5249904442428008 2.11070175475441 0.5323075792003694
H -1.5479385873765492 1.5380873778832 -1.1207477838844981
H -1.7360203247542767 -0.12263742216317887 1.4374530218930341
H -2.9081673319969785 -0.02497961957388594 0.12125391050544244
H -1.64218473466946 -2.1562104207119144 -0.0554156973802006
H -1.2176283339550198 -1.1074991782158567 -1.409329094067406
H 0.42440127029547586 -1.65573989849658 1.1138786719675555
H 0.8752616006982497 -1.9806248288363555 -0.5457535474375148
*
