! r2scan-3c def2/J RI DEFGRID2 scfconv6 printgap
%output
    printlevel normal
end
* xyz 0 1
C 1.1718604465 1.451347688 -0.3175766691
C 0.711719519 -0.0034106948 -0.4355078445
C 1.5873685162 -0.9175455159 0.426027897
C -0.7254491049 -0.1110346517 0.0487562284
O -1.0492129943 0.2265140664 1.1701645487
C -1.7031095319 -0.6618086187 -0.9441553808
H 1.0487775741 1.7944332914 0.7073140986
H 2.2187676146 1.5369500261 -0.5948749501
H 0.5830607794 2.0934352252 -0.9686265549
H 0.7707971106 -0.3218631232 -1.4787261402
H 1.4886965378 -0.6417591758 1.4737668327
H 2.6292164025 -0.8211000129 0.1330057877
H 1.2861334715 -1.9564634687 0.3129283822
H -1.3764478458 -1.650403464 -1.2582836569
H -1.7177959762 -0.0204478272 -1.8224385848
H -2.6980139287 -0.7192014199 -0.5114215388
*
