  10
        -11.54767757
 C         -1.6257508082       -0.4984088792        0.0000008808
 C         -0.6178352283        0.6521379355       -0.0000055741
 C          0.7448228869        0.1584461279        0.0000145762
 C          1.8604277968       -0.2753008911       -0.0000042942
 H         -1.4915741887       -1.1207223315        0.8819173688
 H         -1.4916089715       -1.1207154354       -0.8819257623
 H         -2.6396470806       -0.1059757584        0.0000205184
 H         -0.7645140167        1.2759131464        0.8858433799
 H         -0.7644931940        1.2758466531       -0.8858974487
 H          2.8422006396       -0.6437445185       -0.0000246529
