! r2scan-3c def2/J RI DEFGRID2 scfconv6 printgap
%output
    printlevel normal
end
%cpcm
    smd true
    smdsolvent "water"
end
* xyz 0 1
C -1.7361938019 -0.3981206475 -0.9812784135
C -0.6732226358 0.3887617421 -0.2127826287
C -1.2145856193 0.7464740262 1.1709873958
C 0.6731421418 -0.3886278835 -0.2127361477
C 1.7363208347 0.3979525647 -0.9813325382
C 1.2145523617 -0.7464035635 1.1710137144
H -1.9430722413 -1.3425047392 -0.4818293181
H -2.6633019382 0.1680095476 -1.0396352353
H -1.4010567625 -0.6089740407 -1.9944436389
H -0.5109595499 1.3327578923 -0.7449696153
H -1.4603826562 -0.1456743577 1.7406394338
H -0.4989873848 1.3374750646 1.735019019
H -2.1230087471 1.3351763483 1.060048859
H 0.5107808058 -1.3326244496 -0.7448951814
H 1.9438204526 1.3420161212 -0.4815875099
H 2.6631305108 -0.1685973965 -1.0403955398
H 1.4007831689 0.6093678863 -1.9942356383
H 0.4985335604 -1.3368478861 1.735376854
H 1.4609466096 0.145792203 1.7404837472
H 2.1226159016 -1.3358040407 1.0601319002
*
