! pbe def2-sv(p) def2/J RI DEFGRID1 loosescf d4 GCP(DFT/SV(P)) printgap
%output
    printlevel normal
end
* xyz 0 1
C -3.8393431362 0.1766153528 1.5257042813
N -2.5908662874 0.1515226516 0.795513431
C -2.4847460319 -0.3584249174 -0.4365198938
O -3.4037820222 -0.8592523706 -1.0607184289
O -1.2576967261 -0.3452663145 -1.0077349838
C -0.205305988 0.4210155755 -0.5021731631
C -0.3143486411 1.7820937977 -0.3675460579
C 0.783074292 2.5334945556 0.0785292454
C 1.9673940142 1.9213536704 0.378397932
C 2.1120736123 0.5248444481 0.2396898778
C 1.0097111928 -0.2495177835 -0.2104064903
C 1.1549469213 -1.6449410541 -0.351612308
C 2.3446650274 -2.2505442736 -0.057573203
C 3.4371169496 -1.4898002795 0.3883805538
C 3.3240641322 -0.1352946691 0.5334764517
H -4.6094430353 -0.248251681 0.8852655935
H -4.1002748869 1.2030167588 1.7802322217
H -3.7549935802 -0.4166774563 2.4351880472
H -1.7677025754 0.5044036556 1.262004883
H -1.2436403117 2.2721930036 -0.6164682662
H 0.6758564042 3.6019684484 0.1761247491
H 2.8124284643 2.498223884 0.720859795
H 0.308710263 -2.2168746881 -0.7023593159
H 2.4502346477 -3.3188258167 -0.1683001879
H 4.3684226223 -1.9860856616 0.6142016525
H 4.1624552169 0.4533437362 0.8738193665
*
