! r2scan-3c def2/J RI DEFGRID2 scfconv6 printgap
%output
    printlevel normal
end
* xyz 0 1
C 1.4436778152 0.96852478 0.0208946055
C 0.7624231832 -0.3695619588 -0.0038906839
O 1.4053276933 -1.4110065965 -0.0177345135
C -0.7112605056 -0.4128064624 -0.0144022496
C -1.555265052 0.5876021711 0.7479171475
C -1.5465436217 0.6255788955 -0.7338095945
H 1.1737020474 1.5412673098 -0.8621639986
H 1.1391049521 1.5298070325 0.8997505001
H 2.5200939556 0.8220172585 0.039938061
H -1.07694673 -1.4332237279 -0.0414475533
H -2.4239391204 0.1973627697 1.2543230943
H -1.0479799456 1.369142714 1.289279721
H -2.4094739596 0.2625134847 -1.269420918
H -1.0330170815 1.4338638571 -1.2278616295
*
