! pbe def2-sv(p) def2/J RI DEFGRID1 loosescf d4 GCP(DFT/SV(P)) printgap
%output
    printlevel normal
end
* xyz 0 1
C -2.2779716428 -0.9955992992 0.755039304
C -0.8458760768 -0.4434319736 0.7691824252
H -0.6210444598 -0.0705574218 1.7802936158
C -0.6435782974 0.7001113494 -0.2354019573
H -0.6684696237 0.2856604781 -1.2512720081
C 0.7386860925 1.3054184715 0.0246537123
H 0.6606000902 1.8844289242 0.960226878
C 1.7961466534 0.2003393762 0.2261007398
H 2.6181794729 0.4074479521 -0.4718412308
C 1.2560225175 -1.1893817093 -0.1434036306
H 1.9726100727 -1.9387077745 0.2301214587
O 0.0450243093 -1.5187063039 0.4839605056
O 1.1514614192 -1.253993876 -1.5322509257
O 2.2495162765 0.125399277 1.5534119361
O 1.1617007618 2.1392304023 -1.023594232
O -1.595910416 1.7243027388 -0.0892964728
O -2.8338495201 -0.8736064636 -0.5367786879
H -2.8785544008 -0.4318617572 1.4793457493
H -2.2188392386 -2.0420616347 1.0687533911
H 0.863403331 -2.1423376825 -1.7954291483
H 2.7972667696 0.8991616838 1.7529464184
H 0.4516605112 2.7692602342 -1.2188109864
H -2.4475102343 1.390896398 -0.4101168845
H -3.6331689478 -1.4147755918 -0.5936345548
*
