! pbe def2-sv(p) def2/J RI DEFGRID1 loosescf d4 GCP(DFT/SV(P)) printgap
%output
    printlevel normal
end
* xyz 0 1
C -1.8421490857 -0.6172480431 -1.110791001
C -1.2365873652 -0.5686226047 0.2994928124
H -2.0187444256 -0.8740427352 1.0075173976
C -0.8159183942 0.8577386418 0.666314054
H -1.6393864858 1.5129082668 0.3552158278
C 0.4500324067 1.309176454 -0.0942266413
H 1.0135243338 1.987294715 0.5641815741
C 1.3826941817 0.1263785142 -0.4004380195
H 1.1712067111 -0.2597309866 -1.4102746397
C 1.1119644329 -1.0190480927 0.5826105658
H 1.2539052351 -0.6546187922 1.6189862698
O -0.192869274 -1.5246752413 0.4290474326
O 2.0010876628 -2.0422977669 0.2937463074
O 2.7104554396 0.5754015056 -0.3131144695
O 0.0466786151 1.9797618219 -1.2619822912
O -0.6237583636 0.9094637113 2.0615054109
O -3.1227119022 -0.034642977 -1.0433176491
H -1.9002704276 -1.6700289083 -1.4139304581
H -1.2019426523 -0.0691588352 -1.8100952198
H 1.7151722875 -2.8517619175 0.7433474359
H 3.3009809127 -0.1919882731 -0.3599994158
H 0.8220219905 2.3740720284 -1.6876795363
H -0.6886396628 1.8245655988 2.3706366889
H -3.5061768844 -0.0060989183 -1.9314431306
*
