  22
        -54.09346032
 C          5.1524370067        0.6916788594        0.0013990174
 C          5.1524446921       -0.6916836111        0.0009938120
 C          3.9545762381       -1.3902522278        0.0000952582
 C          2.7582836242       -0.6956526330       -0.0004654011
 C          2.7582829469        0.6956522774       -0.0001968198
 C          3.9545686880        1.3902510199        0.0007919319
 O          1.5776511378        1.4250172485       -0.0009183808
 C          0.4305721447        0.7002390532       -0.0006814861
 C          0.4305839825       -0.7002481909       -0.0007348380
 C         -0.7792574976       -1.3868370191       -0.0002945979
 C         -1.9902154923       -0.6945766562        0.0001220070
 C         -1.9902311008        0.6945967946        0.0000649267
 C         -0.7792586296        1.3868400477       -0.0003190487
 Cl        -0.7526912802        3.1037237270       -0.0004167900
 Cl        -3.4711640543        1.5604276448        0.0005285486
 Cl        -3.4711671960       -1.5604371168        0.0007183693
 Cl        -0.7526958706       -3.1037119667       -0.0002552391
 O          1.5776470894       -1.4250282049       -0.0012453172
 H          6.0823942716        1.2356837337        0.0023460206
 H          6.0824023063       -1.2356818029        0.0015840627
 H          3.9240780087       -2.4669403421       -0.0001355482
 H          3.9240851618        2.4669399184        0.0010974964
