  24
        -51.31137098
 C         -3.6101440124       -1.4802984642        0.0222022786
 C         -4.7163658651       -0.6014045702        0.5423801904
 C         -4.6124743205        0.7029749133        0.7557051012
 C         -3.3864045906        1.5279621497        0.4672294257
 C         -2.4772300394        0.7010982488       -0.4288243856
 H         -2.9568128591        0.6176370007       -1.4132122027
 C         -2.3084104583       -0.7044264969        0.1501927892
 H         -2.0688820056       -0.6159314965        1.2185542010
 C         -1.0473442603       -1.2031118893       -0.4937967743
 O         -0.6434333407       -2.3181893589       -0.6714531537
 N         -0.3252314839       -0.0453522443       -0.8355642931
 C         -1.0707566337        1.1404287332       -0.7149356780
 O         -0.6087389910        2.2360389138       -0.8744405611
 S          1.2715131143       -0.0809739292       -1.3974106174
 C          2.1875792040        0.0052809916        0.1879127613
 Cl         3.8911505677       -0.0660740677       -0.2628420070
 Cl         1.8527245973        1.5196417173        1.0607524252
 Cl         1.7825455302       -1.3620792039        1.2522136879
 H         -3.8012340222       -1.7477586391       -1.0201556063
 H         -3.5685274790       -2.4082830802        0.5933673660
 H         -5.6457109789       -1.1076768131        0.7550001708
 H         -5.4521789008        1.2500494779        1.1567218333
 H         -3.6686071562        2.4620289270       -0.0195270146
 H         -2.8801229385        1.7871213293        1.4007935882
