! wb97x-v def2-tzvp def2/J RIJCOSX DEFGRID2 scfconv7 GCP(DFT/TZ) printgap
%output
    printlevel normal
end
%cpcm
    smd true
    smdsolvent "water"
end
* xyz 0 1
C 2.461010883607422 -1.206642278309951 0.0067851072675272385
C 1.7003498651129894 0.08416125843768424 0.00020367471192512195
O 2.2837237388730536 1.1667741627074124 -0.005560644198615913
C 0.2109352503257994 0.04257815125502195 0.00011896652076264954
C -0.5199827286550888 1.2347409078959528 0.0033190633033082714
C -1.9027658717610099 1.1722642951014048 0.003579740102514111
C -2.5126536623332103 -0.0783513266499073 0.00028502355779703694
N -1.8358226881265076 -1.2362136943098336 -0.003522132423039592
C -0.49954095819921845 -1.1612511147476499 -0.0033797422761579587
H 2.1944404222513056 -1.801750654107858 0.8871432636522294
H 3.531660933789062 -1.0014856065752975 0.011105595844813514
H 2.2028484661168264 -1.8046004352330014 -0.8742583898918368
H -0.0011931401962460284 2.187179092425167 0.006039160503628589
H -2.506444165182179 2.0729523950697533 0.00642605168405976
H -3.5973178159281503 -0.15532745621512573 0.000433847652421788
H 0.025514355075171972 -2.112196743462816 -0.0063929475063922965
*
