! pbe def2-sv(p) def2/J RI DEFGRID1 loosescf d4 GCP(DFT/SV(P)) printgap
%output
    printlevel normal
end
* xyz 0 1
C -2.5092659646 -1.0286173316 0.3375136194
C -1.0681257151 -0.5386588434 0.5864231152
H -0.9052914096 -0.4666451959 1.6722393593
C -0.799146052 0.8332984314 -0.0457978829
H -0.9383066288 0.737825023 -1.1361455833
C 0.6580779521 1.2499946369 0.2214529746
H 0.8142468643 1.3626946102 1.300795271
C 1.5911362218 0.1569220377 -0.3039485464
H 1.4832125915 0.0872054085 -1.4001149725
C 1.1756418011 -1.201897176 0.3091413446
H 1.3579242483 -1.1573502583 1.3981694123
O -0.1710683159 -1.4918272103 0.0444315814
O 1.9543181009 -2.2306558337 -0.1926070806
O 2.9172751971 0.4643309713 0.0362244601
O 0.9078826813 2.5218060622 -0.3212342382
O -1.7055959864 1.7689099132 0.4785368653
O -3.0406980715 -0.6513447752 -0.9042364422
H -3.1405012361 -0.6656944629 1.1537579212
H -2.4914790044 -2.1201222816 0.3462212799
H 1.5175182918 -2.6017903893 -0.975716887
H 3.4683969754 -0.3202746423 -0.111576956
H 1.0903073495 2.4526306719 -1.2695655101
H -1.3274074654 2.6554265856 0.3598760927
H -3.2727527739 0.2881439166 -0.8695653719
*
