! wb97x-v def2-tzvp def2/J RIJCOSX DEFGRID2 scfconv7 GCP(DFT/TZ) printgap
%output
    printlevel normal
end
%cpcm
    smd true
    smdsolvent "water"
end
* xyz 0 1
C 1.4312985017042357 0.9425615726630803 -0.2715354989837765
C 0.7477749578842635 -0.35153526443077415 0.07100615115798402
O 1.4132746172499007 -1.373641110210861 0.26904256016492056
C -0.7152528931241701 -0.3942881247976046 0.21260160077653845
C -1.5002903440252882 0.8587343466824947 0.5742312606944093
C -1.6049489048721381 0.3231765050471219 -0.8032083767805129
H 1.596426236812073 1.491869659083477 0.6638322530028042
H 2.4033089001375996 0.7370699444147699 -0.7227255269784535
H 0.8420768800616668 1.5873023121271388 -0.9267428569796542
H -1.0924031024695586 -1.339439626005952 0.5888711411513815
H -2.331077581193829 0.7042312468189341 1.2539191930293976
H -0.9327584103637858 1.7695449248698525 0.7298054969040366
H -2.5026857989399023 -0.216707519203083 -1.0835063431213243
H -1.1110961411246134 0.8560989490182096 -1.6079629051195339
*
