! r2scan-3c def2/J RI DEFGRID2 scfconv6 printgap
%output
    printlevel normal
end
%cpcm
    smd true
    smdsolvent "water"
end
* xyz 0 1
C -3.0805319098 0.008710324 0.7440782108
O -2.335222513 -0.180201264 -0.4459575452
C -0.9537461862 -0.087496538 -0.2611253401
C -0.20649546 -1.2303360978 -0.0077871028
C 1.1628391636 -1.1472955687 0.1356225878
C 1.8202211298 0.0830394111 0.0373888039
C 1.0548590504 1.2254900261 -0.2170139497
C -0.3143327444 1.1414433936 -0.3606573097
N 3.1720537837 0.176513262 0.2523991467
H -4.1267131896 -0.0803073831 0.460242416
H -2.89374198 0.9991195029 1.171471172
H -2.8304137693 -0.7548928931 1.4878063607
H -0.7092270799 -2.1835030172 0.0624749858
H 1.7367528418 -2.0415467551 0.3276560677
H 1.5446315184 2.1841746886 -0.3007988706
H -0.8996880361 2.0260011273 -0.5638882015
H 3.6264504923 1.0090570956 -0.082294964
H 3.702743804 -0.6737732775 0.1686810229
*
