! wb97x-v def2-tzvp def2/J RIJCOSX DEFGRID2 scfconv7 GCP(DFT/TZ) printgap
%output
    printlevel normal
end
* xyz 0 1
C -3.546950210409165 0.0019719491131907733 -0.002376588041175507
C -2.861411387460617 0.8578214084138437 0.8519880456246304
C -1.4736382881211354 0.8427501222884217 0.8391957180848587
C -0.7393139701718423 -0.0005096086534744218 0.00012520689224883143
C -1.4736188532129892 -0.8425697974579929 -0.8401557653469193
C -2.8613910284921604 -0.8551667718759091 -0.8554403336282264
Cl -0.6048760794652985 -1.9227547240685254 -1.9150557690951824
C 0.7393188815865204 -0.0013124246047130955 0.0010107214431812246
C 1.4744459042525895 0.8410732399205959 -0.8382418941617529
C 2.8622284282707584 0.854375164749539 -0.8514885164825324
C 3.546956970915388 -0.002388307834065936 0.0026106585977662593
C 2.8605867193745302 -0.8586416380050627 0.8559101724931649
C 1.4728219589139462 -0.8442781850234174 0.8410761720529379
Cl 0.6030270532737156 -1.9233742220239956 1.9162191561675113
Cl 0.6067737792250885 1.920875768059559 -1.9143987244802705
Cl -0.6049149078490953 1.9214302901730138 1.9156286692912503
H -4.63155259916091 0.0030019809981912636 -0.0034108825047430625
H -3.396258775123864 1.525437029243585 1.5168860120733987
H -3.3962242355463244 -1.5217972296872535 -1.521329874383682
H 3.3976957031468773 1.521311284246256 -1.5165648037002366
H 4.631559770195198 -0.0027869833855231484 0.003243837393254475
H 3.39480047789293 -1.5259725586907291 1.5215993185308316
*
