  13
        -24.19295185
 C         -0.7322835520       -1.2043162522        0.0001080238
 C          0.6510970526       -1.2091070270       -0.0000258057
 C          1.3185145304       -0.0013727335        0.0000404048
 C          0.6521388306        1.2092269097        0.0000975488
 C         -0.7283801708        1.2053516105        0.0001314481
 C         -1.4301773484        0.0002539906        0.0001920462
 O         -2.7824972344        0.0568140752       -0.0001837095
 F          2.6886140891       -0.0029075241       -0.0001058016
 H         -1.2653774695       -2.1425075498        0.0000905309
 H          1.2070349783       -2.1322751795       -0.0000123846
 H          1.2092908335        2.1314412258       -0.0006686107
 H         -1.2844051417        2.1283220842       -0.0003973220
 H         -3.1694135769       -0.8324425454       -0.0005802847
