! pbe def2-sv(p) def2/J RI DEFGRID1 loosescf d4 GCP(DFT/SV(P)) printgap
%output
    printlevel normal
end
* xyz 0 1
C -2.57692099 0.882469347 0.1240300347
C -1.4299587981 -0.0481302399 -0.1483347396
O -1.4009560753 -0.7508842055 -1.1389279079
C -0.3522235863 -0.0743758725 0.9222045909
C 0.5148751217 1.1913125841 0.8234078381
C 1.2428235302 1.2716056849 -0.5203896637
C 1.7355535447 -0.1076078819 -0.9817064059
C 1.8986750608 -1.0461492851 0.2083016105
C 0.5307012053 -1.3325499977 0.8315932776
H -3.1283020554 1.0752415512 -0.7922605558
H -3.2433966911 0.3909416792 0.8310365244
H -2.2398852277 1.8128046331 0.5685046062
H -0.8703947586 -0.0519743862 1.8855628627
H -0.0931236397 2.0849542502 0.9647056114
H 1.2406517859 1.1582509353 1.6364705546
H 0.5725107348 1.6837666689 -1.2777109309
H 2.0858532261 1.9575115463 -0.4197112165
H 1.0088704961 -0.5488645028 -1.6667451068
H 2.6791299482 -0.0076747842 -1.5199453493
H 2.349571114 -1.9852884245 -0.1157799583
H 2.5680966418 -0.5949076839 0.9425287392
H 0.0119208367 -2.069470273 0.2136067791
H 0.6649633063 -1.7634097008 1.8244814493
*
