  21
        -25.38532637
 C         -2.6353259005       -0.6877812631       -0.7490234712
 C         -1.8777452617       -0.4507005523        0.5598966476
 C         -0.4038057280       -0.2945635029        0.3015112300
 C          0.3916499130       -1.4326572669        0.2548883131
 C          1.7453471554       -1.3558880228       -0.0165125526
 C          2.3239781836       -0.1205301943       -0.2458642230
 C          1.5413731502        1.0190479942       -0.2009036911
 C          0.1796016838        0.9537008789        0.0673046029
 C         -0.6262332061        2.2185649207        0.1135897217
 H         -3.6993849372       -0.7999769606       -0.5560644662
 H         -2.2723585084       -1.5902861424       -1.2355643204
 H         -2.4924318322        0.1452723755       -1.4331399884
 H         -2.0374289652       -1.3066383361        1.2190223775
 H         -2.2765565557        0.4343213043        1.0549508617
 H         -0.0618561469       -2.3970193890        0.4372248311
 H          2.3444977470       -2.2539614376       -0.0472055011
 H          3.3801768281       -0.0434921198       -0.4579927228
 H          1.9973185861        1.9827906194       -0.3796986913
 H         -1.4685582618        2.1708335262       -0.5731406736
 H         -1.0180890995        2.3844172303        1.1165271544
 H         -0.0082935494        3.0708848608       -0.1565000513
  21
        -25.38417663
 C         -2.6697768886       -1.4345429364       -0.0744594386
 C         -1.9577864409       -0.0901148021        0.0124380710
 C         -0.4520567349       -0.1413758599       -0.0057037826
 C          0.2480888494       -1.3363963073       -0.0965762464
 C          1.6325096422       -1.3596921381       -0.1111780409
 C          2.3420556922       -0.1763683768       -0.0342608907
 C          1.6556942797        1.0216677645        0.0561981298
 C          0.2686435176        1.0582370807        0.0716125587
 C         -0.4379508468        2.3763424725        0.1701056253
 H         -3.7457490266       -1.2765852721       -0.0520490592
 H         -2.4035171465       -2.0720392389        0.7654261873
 H         -2.4221472539       -1.9479226187       -1.0006161484
 H         -2.2720469642        0.4141576777        0.9313113369
 H         -2.2893359866        0.5368909049       -0.8208255766
 H         -0.2847900896       -2.2717037904       -0.1576310730
 H          2.1532299486       -2.3034404786       -0.1824031884
 H          3.4220332656       -0.1836035163       -0.0444554403
 H          2.2087622343        1.9485729817        0.1166105927
 H          0.2794506877        3.1910047264        0.2219433072
 H         -1.0800590046        2.5341918875       -0.6953919792
 H         -1.0665514407        2.4105560190        1.0589861297
  21
        -25.38400563
 C         -2.6604667751       -0.5830032654       -0.7405090253
 C         -1.8718623657       -0.5204809356        0.5698368743
 C         -0.4031120287       -0.3229154791        0.3041632441
 C          0.4168399597       -1.4464930549        0.2628732307
 C          1.7688708261       -1.3495925588       -0.0037630363
 C          2.3282329737       -0.1047523839       -0.2359280942
 C          1.5239558255        1.0173490272       -0.2010342934
 C          0.1593414215        0.9314464772        0.0608223234
 C         -0.6268446341        2.2116416323        0.0738633240
 H         -2.5454032918        0.3391968638       -1.3045094099
 H         -3.7176006954       -0.7397955442       -0.5398477159
 H         -2.2978172210       -1.4034782402       -1.3557080772
 H         -2.0112468576       -1.4588241260        1.1103282171
 H         -2.2620340334        0.2812228618        1.1980380842
 H         -0.0194227083       -2.4184518378        0.4470606675
 H          2.3825745774       -2.2379338297       -0.0287429176
 H          3.3838588786       -0.0103351712       -0.4438554074
 H          1.9576711992        1.9906415999       -0.3836382721
 H         -0.4736360260        2.7465893001       -0.8620862977
 H         -1.6900066696        2.0474997987        0.2045441620
 H         -0.2736073988        2.8514064919        0.8820322701
  21
        -25.38306143
 C         -2.6396284271       -1.3241507992        0.3956385148
 C         -1.9501297630       -0.1671841840       -0.3267130462
 C         -0.4503047547       -0.1515494815       -0.1657276673
 C          0.2689300097       -1.3390302295       -0.2302852810
 C          1.6449560521       -1.3609146535       -0.0935454396
 C          2.3307619146       -0.1776141900        0.1093140496
 C          1.6285155202        1.0124169246        0.1614537379
 C          0.2464254410        1.0475849740        0.0228064247
 C         -0.4571727447        2.3727989462        0.0729797621
 H         -2.4112239481       -2.2809622509       -0.0654300852
 H         -3.7179721572       -1.1866837265        0.3633599451
 H         -2.3264422634       -1.3594118972        1.4366902670
 H         -2.3657694665        0.7655329203        0.0518304404
 H         -2.1856216892       -0.2203915555       -1.3943354343
 H         -0.2525038335       -2.2692952274       -0.3950010798
 H          2.1779439740       -2.2988920827       -0.1465090432
 H          3.4050024593       -0.1790705804        0.2209346784
 H          2.1658158948        1.9384172827        0.3115771238
 H         -1.1320781482        2.4208731687        0.9267930740
 H          0.2660092269        3.1788224510        0.1666108970
 H         -1.0396546045        2.5354869221       -0.8320697381
