! pbe def2-sv(p) def2/J RI DEFGRID1 loosescf d4 GCP(DFT/SV(P)) printgap
%output
    printlevel normal
end
* xyz 0 1
C 0.2621757016 -0.5431559339 -0.0002763562
C 1.3996988529 0.1504817402 0.0001942174
F 2.6011208038 -0.3700120452 0.0005251443
F 1.4388850142 1.4622293758 -0.0004888367
C -1.1069199463 0.1054320705 -6.6814e-05
F -1.294271363 0.8779461674 1.0779844707
F -1.2852998695 0.8967458064 -1.0657611715
F -2.0725296462 -0.8053667426 -0.0118796832
F 0.2612543517 -1.8799489166 -0.0002857561
*
