! wb97x-v def2-tzvp def2/J RIJCOSX DEFGRID2 scfconv7 GCP(DFT/TZ) printgap
%output
    printlevel normal
end
%cpcm
    smd true
    smdsolvent "water"
end
* xyz 0 1
C 0.7314670808680035 -1.205251221191183 -0.21885812474258967
C -0.7313548471585347 -1.1993930823533616 0.19762040439204057
N -1.3998796447666118 2.899599175871309e-05 -0.3386312750673038
C -0.7311713405807359 1.1993288321595827 0.19765567168832346
C 0.7316118273290303 1.204992269612614 -0.21893514550678358
N 1.4678279870045439 -0.00015910524447935924 0.215795813503728
H 0.8010969436586348 -1.272436003035706 -1.3120781394907441
H 1.2257214816390973 -2.090852754732265 0.19416580756686921
H -1.2313081365446765 -2.095223104375285 -0.18798983842858338
H -0.7835726387575069 -1.2383890446340051 1.3021064648158944
H -2.3545184733854887 9.070312533699747e-05 0.007584106896838177
H -1.2310450111053912 2.0952532512531645 -0.18783365264634022
H -0.783283854063742 1.238244178079957 1.302152294378826
H 0.8011538111735419 1.2720305151557763 -1.312172361388257
H 1.2260242309217488 2.0905777259899736 0.1939344360786944
H 1.440407827615227 -0.00012274227584899643 1.2348871758683146
*
