! wb97x-v def2-tzvp def2/J RIJCOSX DEFGRID2 scfconv7 GCP(DFT/TZ) printgap
%output
    printlevel normal
end
%cpcm
    smd true
    smdsolvent "water"
end
* xyz 0 1
C -4.280260098482089 -0.24755394110264145 -0.0840960820632188
C -2.793257397792396 -0.04633952674952539 -0.0684431664672016
C -1.962019312609626 -0.8664889837815768 0.7003404489926044
C -0.5806525938149057 -0.7071223351940374 0.683349738527832
C 0.002848998962654257 0.29693336987163443 -0.09365714464753518
C -0.8228157535393188 1.1388981224411185 -0.844796278608705
C -2.1993418633805626 0.9583594377240914 -0.8414958161970796
C 1.4676948962767438 0.5820174936503436 -0.059504176365930965
O 1.8570630895798588 1.7586102189042387 0.1086536327135951
N 2.3400236602367825 -0.4424274893977106 -0.1743819056918383
C 3.7694105946017378 -0.16370203226790475 -0.040208494318837565
C 2.009232326047229 -1.7657544904040674 -0.7029920749035581
H -4.807827093171436 0.7065410587145561 -0.17042619052060473
H -4.575425173636477 -0.8609664195116662 -0.9439895615507327
H -4.621512368645499 -0.7594704168774843 0.8192966385114314
H -2.402963645888282 -1.6395004111497322 1.3235182952267572
H 0.04133355179863238 -1.355862363272698 1.2921298137532795
H -0.3780702688976683 1.9326704672440136 -1.4370253431479914
H -2.82758403034597 1.6106744129184423 -1.4417933982887527
H 4.193475975805229 0.2088507642356176 -0.9812770164431016
H 4.279941663378105 -1.0905889430646454 0.23215231263037872
H 3.9386579275868674 0.5791398412334292 0.7406208103307313
H 0.9810501030604727 -1.795718770918394 -1.0598401291823147
H 2.150229392197631 -2.5410588416525237 0.057958099166960056
H 2.672444933414163 -1.984341238549979 -1.5474175026442145
*
