! pbe def2-sv(p) def2/J RI DEFGRID1 loosescf d4 GCP(DFT/SV(P)) printgap
%output
    printlevel normal
end
* xyz 0 1
C -2.1249529892 -1.1793827818 -0.1859745929
C -1.2616544549 -0.3278710276 0.7551011092
H -1.8517278774 -0.1296111728 1.65599289
C -0.9034668002 1.0343856849 0.130405967
H -1.1624586122 1.0281665453 -0.9411841329
C 0.6088805298 1.2871690606 0.250317498
H 0.8856234218 1.3528697247 1.3084092186
C 1.3264901802 0.0985567415 -0.3905827756
H 0.9472786145 -0.0235022365 -1.419440815
C 0.9846820764 -1.1842475326 0.409733376
H 1.8118695935 -1.4056669274 1.0959073312
O -0.1246807293 -1.0181252139 1.2591566243
O 0.869552074 -2.2931434483 -0.4202882551
O 2.7090005606 0.3469438884 -0.4106422134
O 0.9448543041 2.5280216892 -0.3136200298
O -1.6451927868 2.0352567099 0.7823161989
O -1.4893453833 -1.3324821619 -1.443739561
H -3.0832794559 -0.66504885 -0.3030977137
H -2.2838380976 -2.1563331453 0.2841094386
H 0.0873673983 -2.1642172263 -0.9992042553
H 3.1666016216 -0.3961185138 -0.8295760881
H 1.0639076886 2.4369442596 -1.2699927908
H -1.2193469838 2.8898727431 0.6071928374
H -2.1033629091 -1.7632079459 -2.0563828099
*
