! wb97x-v def2-tzvp def2/J RIJCOSX DEFGRID2 scfconv7 GCP(DFT/TZ) printgap
%output
    printlevel normal
end
* xyz 0 1
C -1.1875213887078684 -1.2103899058095253 4.534555311777759e-06
C 0.20212980378644513 -1.211739635138902 -2.3703411778332646e-06
C 0.8817162579022266 0.0007033690504320979 -2.5799488160321785e-06
C 0.20301818493431822 1.212246064663423 6.548440651420819e-06
C -1.1879474106901624 1.209516961612392 1.3175878988267524e-05
C -1.8809797585426324 -0.000512829308096279 1.0606400271438324e-05
O -3.2543527735285376 -0.056750417137762785 1.7608764853128235e-05
Cl 2.6468358862240287 0.00039096073783231796 -1.0697520612994846e-05
H -1.7363735165637346 -2.1460086124740783 4.899065105403605e-06
H 0.7445606244692516 -2.150255222576717 -7.830376323137848e-06
H 0.7439417588984607 2.1516522277483108 8.288088008629018e-06
H -1.734583866642172 2.1480115864196403 2.106882177455958e-05
H -3.606276231552461 0.844706592152098 2.6072352816767745e-05
*
