! pbe def2-sv(p) def2/J RI DEFGRID1 loosescf d4 GCP(DFT/SV(P)) printgap
%output
    printlevel normal
end
* xyz 0 1
C -2.860651901 0.5836739396 -0.5444867015
C -1.7300018137 0.5148449878 0.4906068396
H -2.1798906785 0.6173252669 1.4847959726
C -0.6905894048 1.6225889505 0.287674585
C 0.1772875804 1.401077453 -0.9457467204
C 0.8501923367 0.0214220669 -0.9993994856
H 1.2175092928 -0.1147765149 -2.0224574989
C -0.1756545311 -1.0962590222 -0.7392576105
C -1.0930489688 -0.85256705 0.4229530388
O -1.3649174825 -1.7256671562 1.2297118012
C 2.0625240914 -0.1015994797 -0.1033614807
C 3.2736923292 -0.1670636518 -0.6381601265
C 1.8812327373 -0.1463034953 1.3842026837
H -3.3980123828 1.5214340448 -0.4301226354
H -2.4735398133 0.525268783 -1.5568449132
H -3.5593400848 -0.23615081 -0.3911103099
H -1.2124542296 2.5766665394 0.1906997134
H -0.066311229 1.682195792 1.1781559081
H -0.438203844 1.5137527819 -1.8395220498
H 0.9507673897 2.1701236909 -0.9825246956
H -0.8213451179 -1.1797643761 -1.6170232039
H 0.328459936 -2.0552166869 -0.6028978627
H 4.1577211721 -0.2545525955 -0.029410649
H 3.4349010363 -0.127472574 -1.7020451698
H 2.7230326332 -0.6519715083 1.8512026996
H 1.8364626951 0.8632092506 1.7916514507
H 0.9680738571 -0.6666354758 1.6615622523
*
