! pbe def2-sv(p) def2/J RI DEFGRID1 loosescf d4 GCP(DFT/SV(P)) printgap
%output
    printlevel normal
end
* xyz 0 1
C 3.3657757453 -0.1112467482 0.0125894601
N 1.948393446 -0.3507840025 0.1781367354
C 1.6144890776 -1.5975028726 0.8274411511
C 1.0582159932 0.5649441328 -0.2251712558
O 1.3965266411 1.6537134519 -0.7039028143
C -0.3926474006 0.2267941784 -0.0916137278
C -0.957331323 -0.8038119858 -0.836384436
C -2.3172479368 -1.0478660436 -0.7609763204
C -3.119565508 -0.2703738718 0.0581909657
C -2.5624525334 0.7634265528 0.7925725412
C -1.2047947719 1.0190917135 0.7109112987
H 3.4955238939 0.8321916361 -0.5138224809
H 3.810962257 -0.9200312614 -0.567227147
H 3.8549338213 -0.0531280725 0.9857953304
H 1.8260205267 -2.437673468 0.163051228
H 0.565036295 -1.6145728624 1.1058509383
H 2.2236702342 -1.702291931 1.725946604
H -0.3323014391 -1.4035690741 -1.4807612977
H -2.7508330241 -1.8465808592 -1.3428489575
H -4.1791693759 -0.465399541 0.1190658263
H -3.185312977 1.3765891153 1.4256212043
H -0.7623785962 1.8323079824 1.2673489895
*
