! wb97x-v def2-tzvp def2/J RIJCOSX DEFGRID2 scfconv7 GCP(DFT/TZ) printgap
%output
    printlevel normal
end
* xyz 0 1
C -1.64951542440405 -1.3927321653115146 0.6199785899900634
C -1.4364711111437343 0.11490308653594665 0.4694943981819176
C -2.7395969099460777 0.7687766705081099 -0.00286343485537569
C -0.31070651246400044 0.5074798188598422 -0.5023311440256077
C 1.1534065566393426 0.1011936747658874 -0.20145709998226186
C 2.059922210935238 1.0028784878777997 -1.0544837903186197
C 1.4948293610536103 0.3171344986980253 1.2766997592311058
C 1.4469096808391237 -1.353677500135348 -0.5955711431172709
H -2.557774000398454 -1.591129839641692 1.200501673925192
H -1.7687695703063677 -1.8685827603566258 -0.3613878888695929
H -0.82010265162212 -1.8817715599684066 1.1363373805548846
H -1.1970204501034776 0.5273661962233162 1.459086206687786
H -2.6332023712249555 1.8554363016387567 -0.09182682131748011
H -3.0306228473525736 0.37794645561936946 -0.9859441103580112
H -3.5592556986363633 0.5640353612169481 0.6944758576569604
H -0.5712078362864751 0.13566128497600172 -1.5047319877219676
H -0.3305252671161681 1.6041234861016418 -0.5706633275832572
H 1.94740565129408 2.055578869814613 -0.7709943226607014
H 1.811167482290269 0.910876968404014 -2.118620162031144
H 3.113328131871279 0.7268861651895144 -0.9289309173885815
H 1.2734831659641597 1.345682275153723 1.5854647249342386
H 2.561825275609101 0.13551759873863534 1.450928795310021
H 0.9310160536031985 -0.361085000622032 1.9258427219060885
H 1.2030856047214584 -1.5255036260877124 -1.6505557226841159
H 0.88307135072432 -2.0724279391267264 0.002799899153353837
H 2.5124444456211146 -1.5731665152603 -0.45783383680247886
*
