! pbe def2-sv(p) def2/J RI DEFGRID1 loosescf d4 GCP(DFT/SV(P)) printgap
%output
    printlevel normal
end
* xyz 0 1
C -2.4217526193 -1.1073167489 -0.3194342913
C -1.0696520431 -0.5990254262 0.2021314719
H -1.1045831717 -0.5788836698 1.3025796573
C -0.7557293042 0.8167334892 -0.3075214452
H -0.7549454035 0.7916479448 -1.4114040449
C 0.6381339126 1.2332228598 0.180682929
H 0.6197369082 1.3299306583 1.2725795401
C 1.6836335404 0.1764646985 -0.2034360206
H 1.7834212244 0.1462590691 -1.3023346923
C 1.2153795388 -1.2155012454 0.2747586611
H 1.2061280701 -1.219367838 1.3764540064
O -0.071763844 -1.4965729641 -0.2379658377
O 2.0579448932 -2.2332775284 -0.1045666988
O 2.9263015074 0.4450956546 0.3896253738
O 0.991366483 2.5101746258 -0.296279024
O -1.7465329261 1.7009679905 0.1506635484
O -3.5071399173 -0.5258018558 0.3487586677
H -2.4786024746 -2.1827211576 -0.1396448003
H -2.4817383681 -0.9290503124 -1.4012615504
H 1.9984846402 -2.3701386941 -1.0638015448
H 3.1199432341 1.3922205976 0.2966899155
H 1.0447863116 2.4995122278 -1.2645092975
H -1.4064225478 2.6088324991 0.1039857126
H -3.4062892679 0.4401084232 0.3178771586
*
