! pbe def2-sv(p) def2/J RI DEFGRID1 loosescf d4 GCP(DFT/SV(P)) printgap
%output
    printlevel normal
end
* xyz 0 1
C -1.9384147242 -0.5545205081 -0.7597225095
C -1.2100667968 -0.0681662467 0.5088441012
H -1.9165088497 -0.0211445413 1.3461213251
C -0.6082451434 1.3364498669 0.3231573082
H -1.3350616085 1.9497402793 -0.2199218059
C 0.6927742496 1.3009013913 -0.5007255947
H 1.1908621139 2.2723156905 -0.3474625443
C 1.6489789049 0.2211310585 0.0457046825
H 2.4584068915 0.0622931386 -0.6811384811
C 0.9321837118 -1.1309450131 0.2244960239
H 1.5572161669 -1.786563334 0.8602796001
O -0.2486570573 -1.0187738006 0.963502646
O 0.7681877973 -1.7042171814 -1.0348379607
O 2.1446112765 0.7039900327 1.2702556543
O 0.3631349676 1.1180398963 -1.8499881723
O -0.4066998122 1.9747743232 1.5584343036
O -2.2221585879 -1.9318397455 -0.7075639683
H -1.3037651541 -0.4067588098 -1.6342653784
H -2.8537214447 0.0360965835 -0.8835932924
H 0.078109887 -2.3866160745 -0.9920375186
H 2.8240830184 0.1086865532 1.6183192939
H 1.1607023737 1.1659937412 -2.3964049129
H 0.3644250747 1.5740985812 1.9940600055
H -2.7959063496 -2.1141792635 0.0501744813
*
