! pbe def2-sv(p) def2/J RI DEFGRID1 loosescf d4 GCP(DFT/SV(P)) printgap
%output
    printlevel normal
end
* xyz 0 1
C -1.1986688703 -1.2016474847 0.0088524467
C 0.1807417539 -1.2040223365 0.002426736
C 0.8640054352 3.0911e-06 -3.68384e-05
C 0.1807475164 1.2040297482 0.0025045663
C -1.1986644539 1.201654965 0.0088150925
C -1.9174204226 1.5416e-06 0.0106301575
N -3.2815453964 -6.3117e-06 -0.0478164778
Cl 2.6138763378 -3.5951e-06 -0.0033183878
H -1.7319575361 -2.1396823228 0.0103356968
H 0.7260536264 -2.1344630868 0.0019806998
H 0.7260512899 2.1344467577 0.0017793616
H -1.7319429535 2.139672894 0.010276269
H -3.7571169057 -0.8553455025 0.180669118
H -3.7571313251 0.8553527642 0.1806318551
*
