! r2scan-3c def2/J RI DEFGRID2 scfconv6 printgap
%output
    printlevel normal
end
%cpcm
    smd true
    smdsolvent "water"
end
* xyz 0 1
C -2.6822204688 0.8689517949 0.0180738203
C -1.663359501 -0.1100881243 -0.5562984348
C -0.5893208348 -0.5033114903 0.4725440059
C 0.864305999 -0.1604675556 0.0961914537
C 1.2841943796 -0.8993346639 -1.1768250379
C 1.0355848085 1.348402967 -0.09405911
C 1.770660645 -0.6142939004 1.2465102113
H -2.190998343 1.7843491567 0.3399734011
H -3.4292670928 1.1253094946 -0.7302125889
H -3.1920302591 0.4320503174 0.874044355
H -2.1882050316 -1.0032207247 -0.9002979648
H -1.2032287372 0.3445418006 -1.4334396321
H -0.641255658 -1.5785236882 0.6564719745
H -0.8135517491 -0.0081620507 1.4198666626
H 0.6872645832 -0.5891940578 -2.0302158929
H 2.3286167779 -0.6956052851 -1.4027752536
H 1.1642206423 -1.9728413969 -1.0488578639
H 0.7483409294 1.8793819998 0.810898149
H 0.4261860033 1.7160976496 -0.9150985096
H 2.0747364498 1.583796147 -0.3135271312
H 1.5050434181 -0.1028602395 2.1691922346
H 1.6760795701 -1.6856417468 1.4098978865
H 2.811558147 -0.3936174464 1.0209475144
*
