! pbe def2-sv(p) def2/J RI DEFGRID1 loosescf d4 GCP(DFT/SV(P)) printgap
%output
    printlevel normal
end
* xyz 0 1
C -2.4883968489 -0.2247481508 -0.5430729228
C -1.211440992 -0.2010052126 0.3022516761
H -1.4360394583 -0.5835717473 1.3098382238
C -0.6152212227 1.2128958515 0.4714327358
H -1.35946153 1.9602872034 0.1582841931
C 0.6242224185 1.3695185337 -0.4369724412
H 1.0754039402 2.3535897225 -0.2709582077
C 1.6909876899 0.3076926717 -0.0977102401
H 2.2801838972 0.128967487 -1.0114435742
C 0.9881797648 -1.009774374 0.3129742257
H 0.8575427479 -1.0120188998 1.4064193332
O -0.2748906917 -1.0738043623 -0.3190895897
O 1.7153226486 -2.1408344676 -0.0025157292
O 2.511264773 0.8148944571 0.921171068
O 0.2649086372 1.3344993218 -1.7927981682
O -0.3030940897 1.366106813 1.8331809664
O -3.0583671803 -1.5061518206 -0.5984639904
H -2.2693964476 0.1466344918 -1.5524410992
H -3.2357104965 0.4218516908 -0.0806223548
H 1.6805928654 -2.3023178531 -0.9582559062
H 3.1853275271 0.1609329477 1.1551407254
H -0.0579388324 0.4449752208 -2.005190465
H 0.1435143883 2.2118387359 1.9816665289
H -2.382655192 -2.1324136083 -0.8970592396
*
