! wb97x-v def2-tzvp def2/J RIJCOSX DEFGRID2 scfconv7 GCP(DFT/TZ) printgap
%output
    printlevel normal
end
* xyz 0 1
C 1.4490876506490944 0.969326425454416 0.019558904179760642
C 0.7528823443839351 -0.3613726290890081 -0.0027586809887316334
O 1.4061241797123363 -1.4102535169104709 -0.016025036959645824
C -0.7183271851607013 -0.42834988185985384 -0.014887119911507948
C -1.561427552517836 0.5894983025582191 0.7490267887228074
C -1.5516253056858342 0.6299178193136246 -0.7323987728878898
H 1.1866883535399397 1.5580494615618923 -0.8655624337570774
H 1.1469587498213318 1.555561631365016 0.8933026691483883
H 2.52844640596174 0.8160733491328637 0.04275556340737222
H -1.1027546945398863 -1.442453438486042 -0.043345809457275224
H -2.431559298375707 0.18109572252064793 1.2507392634110703
H -1.0335456547071251 1.3673836282590226 1.2881817786783543
H -2.415371569297564 0.25088663380220616 -1.2671317920303353
H -1.0156726721197424 1.4357181036290843 -1.2200833526883963
*
