! wb97x-v def2-tzvp def2/J RIJCOSX DEFGRID2 scfconv7 GCP(DFT/TZ) printgap
%output
    printlevel normal
end
* xyz 0 1
C -2.448713499852107 1.0569180672116194 -0.45215857492891415
C -1.708908377524925 -0.2742058213363436 -0.2789272841719322
C -2.3276517764185356 -1.0535047309050647 0.887035620056028
C -0.19956717100684235 -0.10038142089030629 -0.14037379750709267
C 0.5830263199399299 -1.0455954378472736 0.5373234342626227
C 1.9654263908657306 -0.9057110854151048 0.6375571406113775
C 2.6069753071004365 0.18732520076333137 0.061765434330401735
C 1.8466045495810683 1.135863550027097 -0.6161508974747909
C 0.4642464181441345 0.9928047496889191 -0.7141304506822125
H -2.1669281865549217 1.5788431540501993 -1.3699810349619548
H -2.2533797494103966 1.7238704218233336 0.395548557122322
H -3.526702640859636 0.8751371877956323 -0.49928158587329413
H -1.8764129259512856 -0.8638041602587708 -1.1928728346801678
H -2.122889657534666 -0.5543077527752347 1.841217353285079
H -1.9578353789483054 -2.0798061534856678 0.9515574838405593
H -3.413033665908565 -1.1070641780638053 0.7585404581653803
H 0.11645988781016157 -1.9093971401922616 0.9973616374451983
H 2.5413286196777736 -1.6560398786237758 1.1713838887554604
H 3.6837781384265362 0.29909572361005776 0.14180387916653173
H 2.3287056814271767 1.995870097497088 -1.0716719804388366
H -0.09704993517370027 1.7503247727012092 -1.2493138713378105
*
