! wb97x-v def2-tzvp def2/J RIJCOSX DEFGRID2 scfconv7 GCP(DFT/TZ) printgap
%output
    printlevel normal
end
* xyz 0 1
C -2.5778425705337016 -0.6159762146270845 -0.36588249804382034
C -1.2083485285319395 -0.2882360197776371 0.17936893639678597
H -1.243741511864022 -0.2583890593632462 1.2808087032944575
C -0.6906789840310843 1.0518342606142361 -0.3464582823364638
H -0.6984175586594406 1.0308274535755377 -1.4479163189586761
C 0.7366459884141849 1.2776094987637239 0.13539665124458264
H 0.7200405279494801 1.3972120938787873 1.2303384931550576
C 1.6275269766453337 0.09310816995762412 -0.2097996473071979
H 1.7249773543930058 0.0056666271746154 -1.302252855596417
C 0.9918604025954546 -1.1885342314141663 0.31937544569467224
H 0.911539742350692 -1.1608157958410432 1.4185618606218466
O -0.31565534376278687 -1.3311625484100063 -0.247932915810628
O 1.7681075300798896 -2.27653054985326 -0.10689029318170781
O 2.9009775105611246 0.3286724979839205 0.39664388498756414
O 1.200583760120874 2.4851402717374893 -0.48065807290913715
O -1.553667401360823 2.084103817077889 0.1385881819137471
O -3.0450467628319218 -1.8128687250112487 0.27411432456529267
H -2.509857291763809 -0.7564135805327519 -1.4538380796312915
H -3.253522621735494 0.22201500793174211 -0.1596168308181075
H 1.565700235752738 -3.035042139169263 0.4576595785891464
H 3.519332121449531 -0.31965377310127074 0.035988238181870705
H 2.025264771147574 2.7374774643618243 -0.04558588744338786
H -1.155253905473764 2.9272530936671424 -0.11841131939258022
H -3.915170044397907 -2.012762284366551 -0.09287325164669563
*
