! pbe def2-sv(p) def2/J RI DEFGRID1 loosescf d4 GCP(DFT/SV(P)) printgap
%output
    printlevel normal
end
* xyz 0 1
C -2.2140278066 -0.6188648576 -0.7343710907
C -1.3883746321 -0.4998364458 0.5666885658
H -2.0703242859 -0.7802921024 1.3828225997
C -0.8801894977 0.9244047418 0.8416809129
H -1.6941977464 1.6299314333 0.6195844937
C 0.3153228857 1.3224334224 -0.0415606418
H 0.9498287513 1.9755908585 0.5753128132
C 1.1497793955 0.0957162142 -0.4637909659
H 0.7721455351 -0.2842268217 -1.4211475436
C 0.9794158431 -1.0083217887 0.5952147035
H 1.2513579695 -0.6106166822 1.5878367596
O -0.3503479902 -1.4781794456 0.5988980174
O 1.8107463033 -2.0891962589 0.3835181511
O 2.4968704009 0.430509026 -0.6805890977
O -0.1768089001 2.0366005685 -1.1530447031
O -0.4577535577 1.0703170962 2.1790731866
O -1.5499343984 -0.2628449703 -1.9163696165
H -3.1269316796 -0.0225545455 -0.6073999408
H -2.4889166986 -1.6690463972 -0.8552856413
H 1.5237808054 -2.570159764 -0.408875836
H 2.9782554045 0.4393946875 0.158504549
H 0.5710614177 2.3346717743 -1.6917263843
H -1.207929139 0.9533604312 2.7800908761
H -1.3116688844 0.6833020133 -1.8804751486
*
