! wb97x-v def2-tzvp def2/J RIJCOSX DEFGRID2 scfconv7 GCP(DFT/TZ) printgap
%output
    printlevel normal
end
* xyz 0 1
C -3.09183683074127 0.016570432803009266 -0.7021862136567856
O -2.3299659774805073 -0.19326482948575308 0.5019092580058456
C -0.9535087397043828 -0.09514724190592376 0.2876088421203229
C -0.20986455119405628 -1.2412009707267782 0.02427439678837403
C 1.1672710408547642 -1.1540350235129762 -0.1450717146849055
C 1.8220129512754455 0.08384335384837004 -0.058741551261755696
C 1.0560429908134883 1.2314156436817654 0.19789287609682543
C -0.3206361532302485 1.1417468181856067 0.3682406554028876
N 3.2105265134270877 0.16257005407089922 -0.15900435963596754
H -4.145505678476346 -0.07484815646650511 -0.42942831975931733
H -2.8397964921213603 -0.7401900146617596 -1.455896112709433
H -2.903915430445825 1.0168510984344818 -1.1121151262174735
H -0.711685220373995 -2.2017449124096062 -0.04483461985809369
H 1.7461633545895268 -2.0517469094946983 -0.34412095351464844
H 1.5485333388635658 2.1975903325298374 0.267465382089993
H -0.9078783019040538 2.033243335896155 0.567471816556357
H 3.550084858506225 1.0663014810562441 -0.45839510184951476
H 3.625825558009373 -0.5866917872529893 -0.6953382233416521
*
