! pbe def2-sv(p) def2/J RI DEFGRID1 loosescf d4 GCP(DFT/SV(P)) printgap
%output
    printlevel normal
end
* xyz 0 1
C -3.0613518187 0.7396072419 -0.5006650416
C -1.9269248394 0.4377690361 0.480010164
H -2.3604059071 0.406087291 1.4878815092
C -0.8142213146 1.4913239989 0.4429687169
C 0.1772363867 1.1838633028 -0.6742223601
C 0.8960296555 -0.1666683629 -0.4598024941
H 0.9338899731 -0.6864234875 -1.4216112827
C 0.106537181 -1.0678978181 0.5117249465
C -1.3660082958 -0.9487783977 0.2499853642
O -2.0528363217 -1.8886834111 -0.1029384834
C 2.3227571082 0.0406734138 0.0076085935
C 2.6365567111 0.4754892961 1.2175920006
C 3.3685134414 -0.2407532704 -1.0273243966
H -2.6718414386 0.8650115225 -1.5079357732
H -3.7676821769 -0.0872286432 -0.5113724568
H -3.5830167267 1.6472841236 -0.2108659617
H -1.2586551129 2.4735999759 0.2791019234
H -0.2887026278 1.5240617919 1.3969812374
H -0.3628419888 1.1575125687 -1.6222865804
H 0.9175319345 1.9823514581 -0.7374328879
H 0.421170806 -2.1062153597 0.4010405166
H 0.2936728495 -0.7531066643 1.537851641
H 3.660435679 0.6371145843 1.5078555025
H 1.9000405573 0.6935879879 1.971130863
H 3.322230711 -1.2859712506 -1.3305023105
H 3.1917489728 0.3693756836 -1.9121081549
H 4.3641305117 -0.0299484499 -0.6475795337
*
