! r2scan-3c def2/J RI DEFGRID2 scfconv6 printgap
%output
    printlevel normal
end
%cpcm
    smd true
    smdsolvent "water"
end
* xyz 0 1
C -1.5924346772 -0.1455314597 -0.5048026664
C -0.6712664278 0.4920544567 0.5300897733
C 0.6883699668 -0.2178794108 0.634168558
N 1.5376776893 -0.1314420119 -0.5435753154
H -2.5566861972 0.356718513 -0.5131939299
H -1.1678508208 -0.0738375279 -1.5042702675
H -1.7526290166 -1.1963475315 -0.2728596302
H -1.1507629988 0.4580046844 1.509928075
H -0.506930882 1.5427347088 0.2759517755
H 1.2498310383 0.2112692061 1.4692869557
H 0.5281005978 -1.2785842612 0.8459628371
H 1.6865454567 0.8434811554 -0.7831340591
H 1.0740905602 -0.5698055065 -1.3321040497
*
