! pbe def2-sv(p) def2/J RI DEFGRID1 loosescf d4 GCP(DFT/SV(P)) printgap
%output
    printlevel normal
end
* xyz 0 1
C -1.0737097014 -1.8723668475 3.19215e-05
C 0.2533235054 -1.4882453955 8.32216e-05
C 0.5513981969 -0.1269598603 0.0001582868
C -0.4471517923 0.8393104951 0.0001754711
C -1.7801805003 0.4400480222 -3.89529e-05
C -2.0831026618 -0.9236944157 -0.0001411785
O -2.7251875144 1.3964495287 -6.54947e-05
N 1.9115595967 0.2895698678 0.0001294374
O 2.7838816912 -0.5662675052 -0.0001857065
O 2.1590858768 1.4857945151 -7.37412e-05
H -1.3269019881 -2.91986731 -0.000323582
H 1.0561531474 -2.2070492594 9.68514e-05
H -0.1948650214 1.8874966462 0.0001540198
H -3.1140281141 -1.2431143288 0.0002650738
H -3.6187666324 1.0164121096 -3.58331e-05
*
