! wb97x-v def2-tzvp def2/J RIJCOSX DEFGRID2 scfconv7 GCP(DFT/TZ) printgap
%output
    printlevel normal
end
* xyz 0 1
C -1.735492830526028 0.3503772429900748 -0.5867347375622414
C -0.8838902849901173 0.34323751155601245 0.682045100468932
C 0.5844521756675939 -0.07086559869263899 0.48229527327087757
C 0.7148478060076893 -1.5062496780887318 -0.031165875931376767
C 1.3387191262214657 0.8987696841933314 -0.42988735958794316
H -2.761943038087053 0.6551871477960738 -0.3575461486291011
H -1.7840397421573173 -0.6414449934119095 -1.0483334419094215
H -1.3456933959805755 1.0495089574296728 -1.3340365594782737
H -0.9042990924185992 1.3442963957931753 1.1328263907870777
H -1.3396661582580827 -0.3359701265165731 1.4146751891352574
H 1.0575003076862668 -0.029472030905376236 1.4736034314080262
H 0.33665605821732997 -1.5987425804308393 -1.0556800054269293
H 0.1563909678302192 -2.2085229750661073 0.5985168751253371
H 1.763866138522852 -1.8223482304015868 -0.03975589108444941
H 0.9681987278315747 0.8454284444321629 -1.4599168346970697
H 2.4076509693249966 0.6593703704809932 -0.45339100828338014
H 1.2325974732577782 1.9345789175024373 -0.08719464126503508
*
