! pbe def2-sv(p) def2/J RI DEFGRID1 loosescf d4 GCP(DFT/SV(P)) printgap
%output
    printlevel normal
end
* xyz 0 1
C -2.540310141 -0.6814959287 -0.3916443616
C -1.1679158573 -0.3327155151 0.2002989424
H -1.2303622109 -0.3184030956 1.3015743477
C -0.70869798 1.0608007868 -0.2900712952
H -0.7162029219 1.0742842142 -1.385135412
C 0.7240110159 1.3227431621 0.193990304
H 0.7192254373 1.3882910694 1.2983472545
C 1.6359855439 0.1546352431 -0.2234092727
H 1.6663966326 0.108601041 -1.3178763692
C 1.0460211818 -1.1623022084 0.3201154651
H 1.015203868 -1.1164675983 1.4245133862
O -0.2534727009 -1.3378712916 -0.194846709
O 1.8040201555 -2.2693267448 0.0093840384
O 2.9591482089 0.3788110182 0.189706127
O 1.1837022124 2.5374714445 -0.3414192381
O -1.60954196 2.0586203629 0.1040705763
O -3.1959622716 -1.7257809612 0.2768391546
H -2.3912270724 -1.0290589892 -1.415231749
H -3.1480044256 0.2307534246 -0.4027448093
H 1.7023469145 -2.4845132647 -0.9307636478
H 3.0777579257 0.1095788157 1.1120186683
H 2.1536243517 2.5419616951 -0.2999844098
H -1.4516255251 2.3094681971 1.0261882097
H -3.4447277398 -1.4403124483 1.167647554
*
