! wb97x-v def2-tzvp def2/J RIJCOSX DEFGRID2 scfconv7 GCP(DFT/TZ) printgap
%output
    printlevel normal
end
* xyz 0 1
C -2.4110127589092842 0.043947677301449974 0.04865012027224665
C -0.9508648251509977 0.4866025288110253 -0.011625825386066126
C -0.0013756733997949983 -0.6774979242389012 -0.1425326634677258
C 1.3322932449776914 -0.6191962114960201 -0.07172086282238606
C 2.145602730923542 0.6155924790540663 0.14619092945181655
H -3.080466396947201 0.9040145926340658 0.1458395072315257
H -2.585833040943911 -0.6174341862586734 0.9041781823046882
H -2.6930197239194964 -0.5011959716204211 -0.8586452989029973
H -0.8141586178050617 1.1735422849092056 -0.8582053527555267
H -0.7066496756678146 1.070392950363902 0.8849954851297324
H -0.46191139439934664 -1.6506095909462035 -0.3162451163034295
H 1.8936628128060715 -1.5458451762453507 -0.1875772643473889
H 2.8251381000552778 0.7854632934998942 -0.6984807183470546
H 2.781114726843768 0.5139161188547863 1.0346131114488057
H 1.526451248165793 1.507590775915633 0.2676158975740508
*
