! wb97x-v def2-tzvp def2/J RIJCOSX DEFGRID2 scfconv7 GCP(DFT/TZ) printgap
%output
    printlevel normal
end
* xyz 0 1
C -2.6241507994033424 0.0037315266996118825 -0.4031880064396364
O -1.336329924171155 0.5801618569870836 -0.05103508509470107
C -0.4737667127968643 -0.24909327987760557 0.5451466426050582
O -0.7093084831046133 -1.4090483637243136 0.8240668065399842
C 0.8453949083402044 0.43002376015510346 0.8182973378947812
Cl 1.8766917580730265 0.2458324820248283 -0.6762079187302673
H -3.1322161198110194 -0.34919886338149503 0.4964453848833694
H -2.4815944354371857 -0.8186317267169216 -1.1073059226339552
H -3.1829322978798023 0.8145749776877719 -0.866722108993466
H 1.3618987687371176 -0.06977464276498543 1.6360023404215212
H 0.7288882617484396 1.4967690254023434 1.0071272057899547
*
