! pbe def2-sv(p) def2/J RI DEFGRID1 loosescf d4 GCP(DFT/SV(P)) printgap
%output
    printlevel normal
end
* xyz 0 1
C -2.4376461927 -0.688952567 0.0306748239
C -1.0062984099 -0.2441613702 0.356066801
H -0.9344581536 0.0065839808 1.4237541135
C -0.5534328209 0.9621488693 -0.4759365263
H -0.5872970143 0.6701668069 -1.5371753612
C 0.9025005947 1.3273585347 -0.1111278285
H 0.859419457 2.1449863198 0.6197583937
C 1.6534895999 0.1577381238 0.549763317
H 2.7209963547 0.2939381554 0.3249635611
C 1.1971099999 -1.154796404 -0.1033657294
H 1.6834079769 -2.0255380155 0.3579719648
O -0.1829359624 -1.3789046742 0.0779025564
O 1.5527226647 -1.1930462291 -1.450932758
O 1.4149802667 0.1897339679 1.9313330639
O 1.6354980017 1.6926660893 -1.2574865581
O -1.3251638369 2.1161028864 -0.2526720583
O -2.8251224967 -1.7973473241 0.8002144719
H -2.500474361 -0.9284735908 -1.0401159275
H -3.1432108878 0.1054020345 0.278362499
H 1.5751628099 -0.2948187056 -1.8265983071
H 1.994144178 -0.4398111263 2.3846861442
H 1.317011884 2.5440770796 -1.5909436734
H -2.2123729218 2.0090400246 -0.6212043965
H -2.146952208 -2.4816962915 0.7012551621
*
