! r2scan-3c def2/J RI DEFGRID2 scfconv6 printgap
%output
    printlevel normal
end
* xyz 0 1
C -2.4825021595 0.2587718035 -0.0044930908
O -1.0510817382 0.3199529689 0.0023256196
C -0.3633625209 -0.7991729968 0.0077878872
O -0.8411420081 -1.9132572445 0.0070871067
C 1.1353438841 -0.5842466855 0.0192461514
Cl 1.5854093361 1.1379162526 -0.0133370104
H -2.8278399603 0.7343109593 -0.9203803809
H -2.8344711741 0.8106283033 0.8645109763
H -2.8095933602 -0.7802195813 0.0369581632
H 1.5736012944 -1.0687004096 -0.8539412599
H 1.5524028775 -1.0281461399 0.923951543
*
