! wb97x-v def2-tzvp def2/J RIJCOSX DEFGRID2 scfconv7 GCP(DFT/TZ) printgap
%output
    printlevel normal
end
* xyz 0 1
C 1.6975718057031326 0.3983490006963176 0.6456792203090487
C 0.8935788175740569 0.3806624140732944 -0.652230304129526
C -0.570291117342755 -0.03421706983342598 -0.4965904543027667
H -1.051138883396534 0.04231928759415603 -1.4836324811283759
C -1.3476589549395968 0.8097347533515316 0.4946094861697241
O -0.6767227529742211 -1.4079242926324853 -0.04126885255159181
H 1.349736978463354 1.1805581891409356 1.327437616628384
H 2.7546763675768107 0.5897690886944726 0.4372365308253389
H 1.6308101064948972 -0.5610301480610025 1.1690461318499354
H 1.362423010323157 -0.30670745130713095 -1.3689079410212819
H 0.9129157004469585 1.373821948040278 -1.1181821795721243
H -2.401629499720774 0.5161710065815237 0.5044854915345589
H -0.9491649517664237 0.6937636035490251 1.5071997230125194
H -1.2879371014617984 1.8665634512286085 0.2179957202705315
H -0.19417645348991538 -1.9558643807587464 -0.674103534347204
*
