! pbe def2-sv(p) def2/J RI DEFGRID1 loosescf d4 GCP(DFT/SV(P)) printgap
%output
    printlevel normal
end
* xyz 0 1
C -2.853745563 0.60122414 -0.4325065832
C -1.6195556526 0.5825763783 0.4811934259
H -1.9605678934 0.8011195566 1.4998365945
C -0.5751614404 1.6208673264 0.0579913476
C 0.1701571426 1.2168565793 -1.207470355
C 0.8615269499 -0.143625179 -1.038707065
H 1.2890051121 -0.4229788709 -2.0080414038
C -0.1878259704 -1.2007190195 -0.6754121608
C -1.0684531871 -0.8258419959 0.4830362945
O -1.3928756667 -1.6319862758 1.3368854627
C 2.0137654242 -0.048705202 -0.0569021056
C 3.1455220337 0.5312650053 -0.4297191472
C 1.8504497175 -0.6160818656 1.3190897656
H -3.5618606948 -0.1632649003 -0.1196289812
H -3.3392800549 1.5712173579 -0.366181906
H -2.5808067519 0.4177659387 -1.4671743543
H -1.0770908817 2.5772250082 -0.0992164574
H 0.1453275679 1.7570035779 0.8666316669
H -0.5227839996 1.1642537571 -2.0480019878
H 0.9189775374 1.9749518607 -1.4391844279
H -0.8574779067 -1.3232149973 -1.5313050074
H 0.2715456052 -2.170260389 -0.4776242933
H 3.9798720489 0.6359914492 0.2420596338
H 3.2849640653 0.9233744338 -1.4231077469
H 0.9370525238 -0.2611303464 1.7928245077
H 1.7912555069 -1.7034074479 1.2800410766
H 2.6966097729 -0.3434726227 1.944572937
*
