! wb97x-v def2-tzvp def2/J RIJCOSX DEFGRID2 scfconv7 GCP(DFT/TZ) printgap
%output
    printlevel normal
end
* xyz 0 1
C -2.497307435388915 0.06987008362363172 0.011712420903969735
C -1.2314343613433427 -0.77187100009884 0.0064278148807818195
C 0.02581895765850692 0.04977657604158956 -0.014497843785168857
O 0.0812551223071857 1.2620751477362027 -0.132254255530838
O 1.1238569769641338 -0.7270945611571918 0.10554134929020478
C 2.3966623964501634 -0.031653229707721935 0.07551238847696425
H -2.5479298487892503 0.7009665192767274 0.9035399337764747
H -2.5455231974709975 0.717529047158696 -0.8678467147056166
H -3.376005140623729 -0.5801156493108898 0.004352613018390298
H -1.1959964166353148 -1.4299140145173497 -0.8711231717790244
H -1.1836153363981925 -1.4341978277949106 0.8781230202144666
H 2.4486867231227234 0.6987305235883223 0.8866168831402443
H 2.532228435612491 0.46621932318100945 -0.8880318440084083
H 3.1519528352725383 -0.8051277938294258 0.21204045835414478
*
