! wb97x-v def2-tzvp def2/J RIJCOSX DEFGRID2 scfconv7 GCP(DFT/TZ) printgap
%output
    printlevel normal
end
%cpcm
    smd true
    smdsolvent "water"
end
* xyz 0 1
C -2.5842056824467927 -0.6209478850811954 -0.29466789126405435
C -1.2028893227549222 -0.27216786090016826 0.22180407684742773
H -1.2131770326149105 -0.23901486382736137 1.3234474164724153
C -0.6962890126682402 1.0620426642785747 -0.32347471084704627
H -0.7205425235122922 1.033177749984698 -1.4246405318127986
C 0.7379645497938804 1.2843552611940825 0.13589362999757654
H 0.7367288188972753 1.4041100041234753 1.2324027334356724
C 1.6239831286786834 0.09185390626521432 -0.22037646586454715
H 1.7058366353291379 0.006160832035726552 -1.3118364414577084
C 0.9982030749160884 -1.196166356492585 0.3195423807762538
H 0.9490599910815349 -1.1772629933302508 1.419305770344738
O -0.3244761202341613 -1.3224822214716168 -0.21892902143157816
O 1.7189807506758008 -2.3456842623492014 -0.031621136847120083
O 2.95446401301529 0.27769110492180193 0.2662859918242633
O 1.2026665528183007 2.487668910780156 -0.48622231756704093
O -1.5580322924794823 2.093414392812602 0.16792414986761617
O -3.0811364605573566 -1.8325709757140005 0.2850877110867686
H -2.552886564304675 -0.6962614134225572 -1.3914732430115841
H -3.2858966838539865 0.1693549958647603 -0.018908842820677518
H 1.9231829242980714 -2.3009411239553956 -0.9776533654724612
H 2.9056736385835915 0.3738785826521755 1.2285237795776502
H 2.0630707010490092 2.700717826348099 -0.10024931516161002
H -1.1772188187267327 2.9371011861384266 -0.11212236444497334
H -2.474694000376036 -2.54011800444935 0.029204347648889822
*
