! pbe def2-sv(p) def2/J RI DEFGRID1 loosescf d4 GCP(DFT/SV(P)) printgap
%output
    printlevel normal
end
* xyz 0 1
C -2.0376705845 -1.4315243267 -0.0865270475
C -1.012682178 -0.5291096172 0.6187710499
H -1.446379047 -0.1918812978 1.5688303519
C -0.6945248356 0.7246725842 -0.211499756
H -0.6644919635 0.4816500626 -1.2863134
C 0.6803210345 1.2529135817 0.2148971578
H 0.668324868 1.4007021039 1.3060429841
C 1.7615518461 0.2190758321 -0.1309333158
H 2.0087311802 0.33558123 -1.1980586893
C 1.2445819105 -1.2180680578 0.1030250915
H 2.0230339662 -1.7809754398 0.6304372932
O 0.1517173344 -1.2595165017 0.9864256431
O 1.0028408845 -1.9072951107 -1.083166537
O 2.9167206413 0.3904377154 0.6470337097
O 1.003835882 2.453218997 -0.4403275926
O -1.6337591421 1.7461878617 0.0096906508
O -3.1694244202 -0.6434713733 -0.38265688
H -2.2848534505 -2.2586608163 0.5876171716
H -1.5990686742 -1.8476399606 -1.0016506335
H 0.5723596183 -1.3397892232 -1.7402966352
H 3.2481954538 1.2929794815 0.5215621424
H 0.2458419165 3.0526738412 -0.3602311042
H -2.5189898403 1.3902232095 -0.1702679052
H -3.8731221095 -1.2067901628 -0.7333784187
*
