! wb97x-v def2-tzvp def2/J RIJCOSX DEFGRID2 scfconv7 GCP(DFT/TZ) printgap
%output
    printlevel normal
end
%cpcm
    smd true
    smdsolvent "water"
end
* xyz 0 1
C -2.242632207569507 0.2694588090120118 6.1538821516703e-05
C -1.7781209401197362 -1.0440666226509818 6.94809830330253e-05
C -0.41057403466650366 -1.290130823117462 4.6552645404469334e-05
C 0.49323147535238987 -0.2208038013690316 -8.200403836955805e-06
C 0.020756608901735453 1.0993832306341118 -3.7227040152686895e-05
C -1.3440686111853521 1.3399052364255712 6.558549640095234e-06
C 1.9276039438519688 -0.5163796802722759 -3.1492362982271786e-05
O 2.8150609011431835 0.32997173757877196 -6.616468232385153e-05
H -3.31050158785352 0.46374105002179944 8.091100081127188e-05
H -2.481171864487527 -1.8703075297276268 0.00012317416015699494
H -0.032338181732045786 -2.308753041201755 5.6198522759095966e-05
H 0.7299518320292616 1.9208483914100787 -7.481499070440568e-05
H -1.717208344684579 2.358751728338749 -1.914162933067162e-05
H 2.1842077069376113 -1.5940767912270075 -3.4080720799897334e-05
*
