! wb97x-v def2-tzvp def2/J RIJCOSX DEFGRID2 scfconv7 GCP(DFT/TZ) printgap
%output
    printlevel normal
end
%cpcm
    smd true
    smdsolvent "water"
end
* xyz 0 1
C 0.23605203655007348 1.3781714341979288 -0.0003043923312224096
C 1.3115320490460722 0.4848933305841777 -0.0002685727596145922
C 1.075310559093706 -0.8932799636243486 -0.00018591655791649818
C -0.23607214662542675 -1.3781024004281763 -0.00015740529886463595
C -1.3115495359368627 -0.4848138282207844 -0.00019244591987206233
C -1.0753180509162825 0.893357006078929 -0.00025438576827292107
Cl -2.404191238736578 1.9970944142534484 -0.00028355490349702426
Cl -2.9318972145797026 -1.0835506720229524 -0.00013903842846346015
Cl -0.5276025414360076 -3.080826313785825 -5.049031737701362e-05
Cl 2.4042023763621136 -1.997029649847077 -0.00014050408265677824
Cl 2.9319130322596494 1.08352375846988 -0.00029037155228356685
Cl 0.5275531174202671 3.0808716101105817 -0.0003343701222667469
*
