! wb97x-v def2-tzvp def2/J RIJCOSX DEFGRID2 scfconv7 GCP(DFT/TZ) printgap
%output
    printlevel normal
end
* xyz 0 1
C -1.3859185412664057 -0.5793285923702923 1.5326002752374143e-05
S -6.67470537136387e-06 0.612231710382817 7.743252952305415e-06
C 1.3859161385303378 -0.5793158542483785 -1.28471840458459e-05
H -1.3540796733851708 -1.2080142485558627 0.8947149701523518
H -1.3542432356530814 -1.2078480930525808 -0.894806681062904
H -2.317507697808475 -0.007611901262313901 0.00015572395444800511
H 1.3542315185850566 -1.2078593411404088 0.894792067947999
H 2.3174999209065987 -0.007590691496009649 -0.0001218876065621395
H 1.3540981186136885 -1.2079780134708906 -0.8947295695645884
*
