! r2scan-3c def2/J RI DEFGRID2 scfconv6 printgap
%output
    printlevel normal
end
%cpcm
    smd true
    smdsolvent "water"
end
* xyz 0 1
C -2.5590299133 -0.6788674028 -0.3256813341
C -1.1697730508 -0.319119972 0.2160192041
H -1.2032617116 -0.2962954647 1.3185627527
C -0.7061031385 1.0475586123 -0.3093067441
H -0.7202557819 1.0283393594 -1.4047715374
C 0.73231079 1.3441378824 0.1513877241
H 0.7475287012 1.4975017801 1.2441020238
C 1.6631190075 0.1706923059 -0.1624248484
H 1.8178237505 0.1273903082 -1.2491497436
C 1.0348101591 -1.1607723734 0.2920427054
H 1.0099387743 -1.1667333556 1.403568167
O -0.2728669403 -1.3347320476 -0.1985905784
O 1.8265428542 -2.1792287177 -0.1977703133
O 2.8750586413 0.3784261412 0.5135860136
O 1.2309383357 2.4867391188 -0.4967580679
O -1.5705486677 2.0892863064 0.061441767
O -3.1558613562 -1.7366050735 0.375904453
H -2.4618087921 -0.9140206859 -1.3914893384
H -3.2180851317 0.1827227429 -0.206538286
H 1.3976110775 -3.037025207 -0.0533230952
H 3.504052627 -0.3098370685 0.2502745131
H 0.5576688314 3.18448368 -0.4510118675
H -1.6411860152 2.1325332452 1.0271863872
H -2.6321741948 -2.5385323556 0.2389511867
*
