! wb97x-v def2-tzvp def2/J RIJCOSX DEFGRID2 scfconv7 GCP(DFT/TZ) printgap
%output
    printlevel normal
end
* xyz 0 1
C -2.0728905960541835 0.07270509198122747 -4.060020133944652e-05
C -0.7127343055388675 0.6965846924785007 0.0003231995239479637
C 0.45675118447142515 0.04217718384127758 0.0002765411910751838
C 1.7665325578774815 0.7765673757878198 -0.0002756283127449538
C 0.5529947156740576 -1.4661860531551782 4.527590157503454e-05
H -2.651041824125635 0.3892935042630849 0.8776723653056006
H -2.65060571387813 0.38990625752456587 -0.8778173999039202
H -2.032210644882912 -1.019266425186047 -0.0005264389501356877
H -0.6893943008702945 1.7869024421188524 0.0002869032356626004
H 2.365959326198788 0.5037067178230807 0.8782517245329777
H 2.3660493727091993 0.5021532880872778 -0.8782676506200942
H 1.6272700458106806 1.8615310791247217 -0.0012604424637580399
H 0.06409314022790279 -1.9051221260532192 0.8769834101740919
H 0.07764019363995622 -1.903623240696605 -0.8851698544881229
H 1.597835115321394 -1.7877339870292819 0.007549568274849138
*
