  24
        -31.81821916
 C         -3.0376207834       -1.4579278730       -0.0008638956
 C         -1.7404244615       -0.7098242857        0.0000614410
 C         -0.5470869548       -1.3827016756        0.0003584622
 C          0.6905814260       -0.7089294296        0.0003995161
 C          1.9239451726       -1.3922352287        0.0004446352
 C          3.1039910770       -0.7019096683       -0.0000517214
 C          3.1039776517        0.7019422653       -0.0005705323
 C          1.9239166410        1.3922426998       -0.0003839672
 C          0.6905759103        0.7089036997        0.0001249969
 C         -0.5470911036        1.3826540026        0.0002877318
 C         -1.7404331987        0.7097649107        0.0002968465
 C         -3.0375937403        1.4579811303        0.0001972129
 H         -3.6274020363       -1.2017020196        0.8778811984
 H         -3.6252765534       -1.2026811493       -0.8813620705
 H         -2.8606918338       -2.5300828573       -0.0000921768
 H         -0.5392182202       -2.4642724796        0.0004008232
 H          1.9190721391       -2.4730841794        0.0007470317
 H          4.0456732922       -1.2310458504       -0.0001193904
 H          4.0456267876        1.2311432406       -0.0010388348
 H          1.9190630573        2.4730905848       -0.0006360181
 H         -0.5392610939        2.4642230289        0.0002844204
 H         -3.6272771127        1.2009430214        0.8787364146
 H         -2.8604215056        2.5300953096        0.0021347915
 H         -3.6253266943        1.2038434996       -0.8805199014
  24
        -31.81608621
 C         -3.0201655140       -1.5013424235        0.0033325978
 C         -1.7477836398       -0.7030025016       -0.0007596494
 C         -0.5515351794       -1.3754595097       -0.0016982137
 C          0.6870929370       -0.7076218942       -0.0015697187
 C          1.9198536120       -1.3930567879       -0.0012609960
 C          3.1001703887       -0.7038355233        0.0006916291
 C          3.1017859276        0.7004847739        0.0019789660
 C          1.9230178818        1.3924861065        0.0007716861
 C          0.6886963079        0.7102490174       -0.0009471818
 C         -0.5482100851        1.3829504317       -0.0013805761
 C         -1.7464354683        0.7150379187       -0.0009539716
 C         -3.0304225512        1.4906132027        0.0002303063
 H         -3.0614313224       -2.1249626731        0.8952716162
 H         -3.9021384298       -0.8722316006       -0.0175847431
 H         -3.0450290592       -2.1614426863       -0.8623408389
 H         -0.5504748841       -2.4571661815       -0.0019743527
 H          1.9134562158       -2.4738437377       -0.0020675467
 H          4.0414727686       -1.2336751232        0.0016485513
 H          4.0442883163        1.2281835473        0.0039981249
 H          1.9195263703        2.4733317042        0.0015549727
 H         -0.5378718291        2.4645376505       -0.0012870910
 H         -3.6233794839        1.2550226776       -0.8822068140
 H         -3.6216054706        1.2549612301        0.8838005990
 H         -2.8250641262        2.5578752715       -0.0001611429
