! pbe def2-sv(p) def2/J RI DEFGRID1 loosescf d4 GCP(DFT/SV(P)) printgap
%output
    printlevel normal
end
* xyz 0 1
C -2.5138586711 -0.7341849145 -0.1942116959
C -1.193709476 -0.5403253171 0.5506624089
H -1.3165424913 -0.903489985 1.5850334445
C -0.7550727347 0.9369676264 0.6685131674
H -1.6126673904 1.5832695251 0.4289818168
C 0.3748661741 1.2833071887 -0.319969077
H 0.7861763708 2.2663268926 -0.0542949929
C 1.5566311029 0.2909635236 -0.2140343484
H 1.9355349504 0.117971172 -1.2317232255
C 1.0830680734 -1.0633505149 0.3420928634
H 1.0853541208 -1.0124189499 1.4508899274
O -0.2241175024 -1.3420131732 -0.100520102
O 1.9299635263 -2.0539966456 -0.1203090736
O 2.5436584591 0.8697975564 0.600417277
O -0.0955553717 1.4069598994 -1.6334556985
O -0.360489002 1.1253015897 2.0078681377
O -2.4343736761 -0.1215606081 -1.4603660921
H -3.3184219822 -0.2910437179 0.4042731472
H -2.6782786692 -1.812137268 -0.2957441933
H 1.5238792776 -2.9230118806 0.0236223901
H 3.3255483614 0.2993699246 0.6108850804
H -0.7723514828 0.7259713489 -1.8055681181
H -0.0387881993 2.0293237959 2.1349342203
H -3.2370659169 -0.3126196604 -1.9658230836
*
