! wb97x-v def2-tzvp def2/J RIJCOSX DEFGRID2 scfconv7 GCP(DFT/TZ) printgap
%output
    printlevel normal
end
%cpcm
    smd true
    smdsolvent "water"
end
* xyz 0 1
C 1.2003991528872702 -1.2589121168957351 0.035260205573559966
C 0.3986831910461319 6.062159308521266e-05 -0.3184078551390212
C 1.199595687882005 1.2595371174982293 0.03532734483580055
C -0.9149605444721919 -0.0003451472212630716 0.4068730515361648
C -2.11492701632226 -0.00033515975385404296 -0.17119195723380473
H 0.6520055748982374 -2.168337345901028 -0.23095829845636534
H 1.410367148447876 -1.290377767965307 1.1110417010967524
H 2.1584813903594715 -1.2675344760069118 -0.49589532851646173
H 0.19807071628220607 3.665914572844062e-05 -1.3978236317371953
H 1.409953377144899 1.2908415082189153 1.111037084324209
H 2.1574592321845816 1.2690399845939146 -0.4962095555502792
H 0.6503946455962982 2.168616851875134 -0.23041122696426247
H -0.843644047538278 -0.0005708937029320207 1.497318637155109
H -3.029685061302518 -0.000565130506491393 0.415656668966637
H -2.2184579856802573 -0.00011786874193530894 -1.2548721461137624
*
