! r2scan-3c def2/J RI DEFGRID2 scfconv6 printgap
%output
    printlevel normal
end
* xyz 0 1
C -1.5502620083 0.916555529 -0.255568954
C -1.3272555082 -0.5083723204 0.2355645076
C 0.0807845618 -1.0024193265 0.4083816815
C 1.2653655493 -0.4710543367 0.1414728088
C 1.6235104161 0.8545803798 -0.4545542214
H -2.6099251604 1.1563903602 -0.1885211725
H -1.2505143572 1.0266023091 -1.294023133
H -1.000775719 1.6272620269 0.3546815296
H -1.8149272657 -0.6185050423 1.2105170587
H -1.8370706289 -1.2016587888 -0.4425379894
H 0.0884707149 -1.9943108574 0.85025921
H 2.1315755441 -1.0670998331 0.4075484442
H 1.7578048192 1.5942740532 0.3353998451
H 0.8698984703 1.2190267701 -1.1415716811
H 2.5674770514 0.7688640687 -0.9889856422
*
