! wb97x-v def2-tzvp def2/J RIJCOSX DEFGRID2 scfconv7 GCP(DFT/TZ) printgap
%output
    printlevel normal
end
* xyz 0 1
C 2.1188989424966267 0.01842776875577314 0.00018215769180129373
N 0.6608113023914574 -0.005964578289798078 0.00043494234497650874
C -0.1354096641496797 -1.1288708813305584 8.691174687030872e-05
C -1.426464961134881 -0.667989863604942 -0.00020035491034356732
N -1.4461612785970648 0.7128619639127662 -0.00011026082431893113
C -0.16937741504165016 1.0689166014166258 0.0002653454118799979
H 2.505615319044456 -0.4787797627491344 -0.8930708593924991
H 2.451654891208314 1.0572474513942713 0.004857275879046336
H 2.5057183431834873 -0.486810890468715 0.8888443295391135
H 0.285505484243484 -2.1232297196741703 0.00012094830909670916
H -2.3368324871359185 -1.2507537974331067 -0.00038804249067697215
H 0.20943085220144092 2.082414815644723 0.0004279636222333891
*
