! r2scan-3c def2/J RI DEFGRID2 scfconv6 printgap
%output
    printlevel normal
end
* xyz 0 1
C -2.4683313917 0.7091026834 0.9780422913
C -1.687753257 -0.0250110209 -0.0745172956
O -2.2543838319 -0.6810880881 -0.9369476571
C -0.2079606135 0.0185784629 -0.0122916314
C 0.4957957105 -1.0897631222 -0.4871875602
C 1.8762456915 -1.1147752013 -0.4532164286
C 2.5746799772 -0.0212265218 0.0344287412
C 1.8864938747 1.095120796 0.4825419571
C 0.5037781753 1.1173210068 0.4671228653
H -1.856185406 1.3795653315 1.5674181295
H -2.9062128891 -0.0394403264 1.6373108286
H -3.2906888901 1.2460968055 0.5110591393
H -0.0666031897 -1.9285991416 -0.8708486392
H 2.4072700934 -1.983274022 -0.8111450988
H 3.6533751139 -0.0362204892 0.0577527619
H 2.4304816062 1.9532635328 0.8460428823
H -0.0135554521 2.0053470167 0.7941700178
*
