! wb97x-v def2-tzvp def2/J RIJCOSX DEFGRID2 scfconv7 GCP(DFT/TZ) printgap
%output
    printlevel normal
end
%cpcm
    smd true
    smdsolvent "water"
end
* xyz 0 1
C -4.2720925848681464e-05 0.988382276209856 -1.0921166274821957e-05
Br -1.6311823235919432 -0.0876372925816947 -9.06266958755775e-05
Br 1.631239588353758 -0.08766291246743252 7.449437448291317e-05
H -0.0008068672890419998 1.589561800554143 0.9049807136642747
H -0.00038688415914918547 1.5905410371909927 -0.9043503543797294
*
