! wb97x-v def2-tzvp def2/J RIJCOSX DEFGRID2 scfconv7 GCP(DFT/TZ) printgap
%output
    printlevel normal
end
* xyz 0 1
C -2.816288159905242 1.4086456444810658 -0.09575192364840279
C -2.384225294441222 -0.04441427442829362 0.0478162021710836
C -0.8934192862067446 -0.2991068437709991 0.046028929492704485
C -0.42817249179305317 -1.618276783188134 0.15552378541781384
C 0.9344988995568234 -1.8880418666969274 0.1585901302950516
C 1.867470566681227 -0.857509265398825 0.05217860726842159
C 1.4047790128635085 0.45027476255891924 -0.05994737853629155
C 0.03732624365774749 0.7326878635922467 -0.06115117686333689
O 2.262950140853351 1.5251141924572693 -0.17595394952297297
H -2.4384676150019096 2.0257427916110213 0.725934603785486
H -3.908090145355093 1.4756220918214742 -0.08689961583695886
H -2.463479403819688 1.8439214900423737 -1.0364565754975215
H -2.83017909693004 -0.6398274953662869 -0.759165282915445
H -2.797938347084049 -0.45779702088964747 0.9767504348530431
H -1.143230352168644 -2.432018335334134 0.23754370831245497
H 1.283849043466099 -2.912713597432267 0.24389866787621212
H 2.934498391405614 -1.061407376026554 0.0521500954233483
H -0.27729510256874207 1.7667821036854043 -0.1497563667512335
H 3.174325277260145 1.2005808149930564 -0.17786435115321733
*
