! pbe def2-sv(p) def2/J RI DEFGRID1 loosescf d4 GCP(DFT/SV(P)) printgap
%output
    printlevel normal
end
* xyz 0 1
C -2.5163826059 -0.9937272614 0.3608818498
C -1.0669871535 -0.5233765923 0.5923762834
H -0.8904551854 -0.4690328965 1.6798474571
C -0.7978982866 0.8607329676 -0.0345877282
H -0.9350406703 0.7848748298 -1.1193366511
C 0.659125648 1.2523635511 0.2320495488
H 0.8202535879 1.3486652294 1.3204920666
C 1.5873664827 0.1458308515 -0.2833426002
H 1.4995517685 0.0837686293 -1.3780333489
C 1.1651049813 -1.2141556723 0.2974451574
H 1.3319616422 -1.1936918356 1.3980185856
O -0.189119399 -1.4876372711 0.0412281728
O 1.9350837423 -2.1932739716 -0.3001151628
O 2.8976654152 0.4791010167 0.097706687
O 0.9256014615 2.4773500934 -0.3991271716
O -1.722881773 1.8144168317 0.4135568809
O -3.0185212913 -0.7188991971 -0.9184519001
H -3.1517630354 -0.5418214999 1.129641288
H -2.5343886821 -2.0801195929 0.4664711522
H 1.5069735817 -3.0560754012 -0.1873629776
H 3.5003808955 -0.2185413748 -0.1988214103
H 1.8775086684 2.6507440812 -0.3414231198
H -1.4322634794 2.1967790073 1.2533048638
H -3.178229764 0.2330004096 -0.994801478
*
