! pbe def2-sv(p) def2/J RI DEFGRID1 loosescf d4 GCP(DFT/SV(P)) printgap
%output
    printlevel normal
end
* xyz 0 1
C -2.8643505989 1.2522636804 0.7067416685
C -1.7034594378 0.5676028727 0.06257577
C -0.8839042887 1.1243140742 -0.8191260995
C 0.2333281057 0.3313517755 -1.4162846776
C 0.9964103166 -0.5088172514 -0.366816097
H 1.3938596178 -1.3860753397 -0.8846673938
C 0.077364743 -0.9877394083 0.7788081927
C -1.4193140714 -0.8626982451 0.4552526168
H -1.995571051 -1.1204409748 1.359294173
O -1.8270313347 -1.7148985552 -0.6049637683
C 2.1665489468 0.2554012831 0.2155999651
C 2.0586017226 1.5120423068 0.6166068978
C 3.4435550683 -0.519052374 0.3346886694
H -2.7355994403 1.2770208865 1.7886304339
H -3.7822343741 0.7069776859 0.4908593915
H -2.9621020939 2.2697963538 0.3386779125
H -1.023057742 2.1435294225 -1.1496314769
H -0.1994834818 -0.3529555048 -2.1509985845
H 0.9360816684 0.9832129867 -1.9358167037
H 0.3106850704 -2.0232064832 1.0343800349
H 0.2587830715 -0.3775725828 1.6656343224
H -1.5934357048 -2.6257219198 -0.3804142431
H 2.8904958979 2.0454024603 1.0448591799
H 1.1328412391 2.0556597831 0.5321243445
H 4.2192110202 0.0752939133 0.8096152408
H 3.279565663 -1.4206074905 0.9234631754
H 3.7898797549 -0.8240685073 -0.6521513631
*
