! wb97x-v def2-tzvp def2/J RIJCOSX DEFGRID2 scfconv7 GCP(DFT/TZ) printgap
%output
    printlevel normal
end
%cpcm
    smd true
    smdsolvent "water"
end
* xyz 0 1
C 1.2623703965436268 1.4763458881302958 -0.21568252544657204
C 0.7172689684122106 0.0696891488556546 -0.4177288449296228
C 1.507285181887313 -0.9650537974879355 0.4076459788495797
C -0.7432167740932588 -0.05216033526374597 -0.04855668591975432
O -1.3275724547110603 0.8177309489393865 0.5917080302354445
C -1.4700634580700014 -1.3003656163959612 -0.4714278566306147
H 1.2338947453702573 1.758576103065207 0.8413718719322231
H 2.3021742980848083 1.5249245914115077 -0.5517759477354378
H 0.6841744487704141 2.2137647057670837 -0.7802041616615427
H 0.7943813945114665 -0.21885586870875887 -1.4753826971780781
H 1.1350439619673591 -1.9824599155503309 0.25903491037150506
H 1.4452536592214769 -0.7245021885140539 1.4742792090558379
H 2.5597740624551895 -0.9405595739172338 0.11102227781069116
H -0.8510270063644676 -1.973544393986756 -1.0659395604411208
H -2.3517880533409494 -1.0071679022941065 -1.0509754212410138
H -1.829294994712452 -1.8261828194284513 0.4197572301904824
*
