! pbe def2-sv(p) def2/J RI DEFGRID1 loosescf d4 GCP(DFT/SV(P)) printgap
%output
    printlevel normal
end
* xyz 0 1
C -2.3882525892 -1.1250017152 -0.3930538562
C -1.0721302558 -0.6204274585 0.2223827221
H -1.1378822516 -0.6434631988 1.3235872222
C -0.7880936819 0.8384935628 -0.194121837
H -0.8739495513 0.9329098609 -1.2870782628
C 0.6379357628 1.2505278778 0.1945139
H 0.666953609 1.3762150724 1.2899186414
C 1.6555749962 0.1754791296 -0.2287350539
H 1.6825640208 0.1376881449 -1.3239068583
C 1.2143064152 -1.1989488794 0.3078985727
H 1.1737184387 -1.1655486748 1.4112020725
O -0.0629980559 -1.5089308955 -0.2099676356
O 2.082273649 -2.2188326909 -0.0084280961
O 2.9554202378 0.5248986889 0.1711987971
O 0.931318594 2.4738679202 -0.4324283315
O -1.6789188626 1.7110191121 0.4514787324
O -3.5068829187 -0.4003463476 0.050377446
H -2.4806732321 -2.1940440903 -0.178855477
H -2.3410843437 -0.9945774773 -1.4765798403
H 2.0749812774 -2.3772132572 -0.9654949341
H 3.0731653518 0.3580178572 1.117643097
H 1.8800386717 2.6500733519 -0.3283830416
H -2.5858617359 1.4596996458 0.2005283342
H -3.7382910023 -0.6712733977 0.9503366376
*
