! wb97x-v def2-tzvp def2/J RIJCOSX DEFGRID2 scfconv7 GCP(DFT/TZ) printgap
%output
    printlevel normal
end
* xyz 0 1
C -3.61661096191221 -1.0338265370038184 0.033518857322599654
C -2.1218876573099186 -1.327270526208351 -0.007299441448923246
C -1.2119289229736476 -0.12210692143239858 0.020277426701070994
C -1.705618105815032 1.1649605076045495 0.08131318392412686
C -0.8523341307430553 2.290184291425642 0.10771882110604429
C 0.5095461525144049 2.133475003780908 0.07300036557426985
C 1.0723810895948553 0.8345964692276708 0.010170639591270717
C 0.2087361375643969 -0.30909165464000193 -0.016577778613528046
C 0.8056462608655646 -1.5943944212471006 -0.07908884236427165
C 2.173746708436228 -1.7434827454214057 -0.11365705457874993
C 3.0189129523214255 -0.6150889768821527 -0.08758718679168925
C 2.476191986790525 0.6462400337148555 -0.026559333728314937
H -3.9017198605226575 -0.5018006505052427 0.9469137906845608
H -4.176176280558538 -1.9733994913315507 0.007649207705221294
H -3.9360387438517956 -0.4326471273336775 -0.8239516862117846
H -1.8960653315587135 -1.9142337519785784 -0.9074143744223097
H -1.8610237156781706 -1.97999907972518 0.8362782941664726
H -2.7767368905691465 1.331546896352555 0.1101109781933655
H -1.2877074303070246 3.283717233962065 0.15588708048865574
H 1.1732865924963525 2.9932659088405145 0.09271738304324992
H 0.17706485340052372 -2.4774293366907827 -0.10009063659955789
H 2.6071058796138957 -2.737758129527641 -0.1612574164515463
H 4.096046128034968 -0.7469664475559482 -0.11532141823823419
H 3.1169636231540623 1.5236179841992314 -0.005759177945657753
*
