! wb97x-v def2-tzvp def2/J RIJCOSX DEFGRID2 scfconv7 GCP(DFT/TZ) printgap
%output
    printlevel normal
end
%cpcm
    smd true
    smdsolvent "water"
end
* xyz 0 1
C -3.8311898153274266 -0.7089612153086721 0.00022474788738347158
O -2.3874567300232012 -0.8256064653544091 -0.000976344051232822
C -1.7062865736316124 0.3390132947997214 0.0004613666308332237
O -2.2633165468653136 1.4296965916174253 0.0028640616035610724
C -0.24651103358629828 0.14760652899171914 9.369210602256191e-06
C 0.5762422447411368 1.2814519989224022 0.0011917390642913338
C 1.9545555497143319 1.1570562019093256 0.0010219429799236785
C 2.529277987418333 -0.11770515654531222 -0.00013038514341347004
C 1.7229728276074687 -1.2593999634489528 -0.0013350059333909017
C 0.34599184262058885 -1.1240546772852262 -0.0012623474617900316
O 3.8808293833111804 -0.30669794355718877 -7.323178405890559e-05
H -4.202083610406993 -1.733189598705435 -0.008790708420933413
H -4.168754654821416 -0.17335482508637237 -0.8903723157043736
H -4.168113449474357 -0.18939021929619132 0.9005598584161227
H 0.12626797338821305 2.268128409923283 0.0020731780701612732
H 2.591068479641025 2.0369555232988295 0.0018306598253870637
H 2.187108361880085 -2.2398179077216063 -0.002252513000172835
H -0.2727412320091788 -2.013337817126229 -0.0021641243034247635
H 4.329806920266053 0.5514906420536161 0.001016854367880666
*
