! wb97x-v def2-tzvp def2/J RIJCOSX DEFGRID2 scfconv7 GCP(DFT/TZ) printgap
%output
    printlevel normal
end
%cpcm
    smd true
    smdsolvent "water"
end
* xyz 0 1
C -0.6276217164775859 0.9603597717577145 0.0012288431651054203
C 0.41835368944066215 0.13581092896776878 0.00023783267039879312
Cl 2.0339491054530088 0.7731689691060029 0.0002189739613774708
Cl 0.30538308713660134 -1.5871481131240268 -0.00014585335802203838
Cl -2.2627704210802557 0.3964156820073278 0.0002292754723095291
H -0.5094616740899235 2.0377080434567625 0.0008124088808308433
*
