! wb97x-v def2-tzvp def2/J RIJCOSX DEFGRID2 scfconv7 GCP(DFT/TZ) printgap
%output
    printlevel normal
end
%cpcm
    smd true
    smdsolvent "water"
end
* xyz 0 1
C -2.467644742894758 -0.736982798703896 -1.2558526979727898
C -1.971818212498473 0.0032267531711785494 -0.0002333552829795182
C -2.579933106106814 1.409264193838014 0.0016566449274767483
C -2.469107591585936 -0.7408612463216397 1.2524959650940384
C -0.4415112739978624 0.03310652110342863 0.0003920219135037472
C 0.28102967731392653 -1.1698879756510814 0.00029716893358499116
C 1.669480702675344 -1.1954349752952038 0.0002685740844044474
C 2.3792419898277357 0.004616681346312208 0.00026894418079597104
C 1.6930914031150441 1.2139089215968735 0.00041909857001533747
C 0.29812456239814655 1.2185252970087477 0.0004883068470445364
O 3.7574358016328637 -0.06454071922303103 0.00011625632218360456
H -2.106401222161772 -1.769558393059188 -1.2823935948314542
H -3.56313389287701 -0.7624095616295126 -1.2689332527805408
H -2.125324206285023 -0.23159246373616732 -2.1654879998899834
H -2.2872762520358663 1.9805466238912106 -0.8857325043326247
H -3.671735377590203 1.3287166813062534 0.001445457156993175
H -2.2873657027429353 1.9780058683634132 0.8907111907141768
H -3.5646099030969904 -0.766181685207739 1.2641611113541606
H -2.1081288878419775 -1.7735806323524659 1.2762476717197038
H -2.1278449353678504 -0.2383746988367139 2.164133413405865
H -0.24811468674980938 -2.1180638996010392 0.0001700237845058941
H 2.208559539640618 -2.1377869588080767 0.00019927084445571085
H 2.246287700810982 2.149600226457166 0.00044267863505741036
H -0.20447351684847256 2.1788855020056173 0.0005772930240649021
H 4.113575000309502 0.8349107632137246 -5.409106915703755e-05
*
