! pbe def2-sv(p) def2/J RI DEFGRID1 loosescf d4 GCP(DFT/SV(P)) printgap
%output
    printlevel normal
end
* xyz 0 1
C -2.9707055972 0.0400094574 0.5666067881
C -2.0599712853 -0.5608911405 -0.502286043
H -2.6925684899 -1.0449719694 -1.2541571121
C -1.0935960004 -1.6020469232 0.0587545037
C -0.140480067 -1.0002270143 1.086854204
C 0.5811078871 0.2749538408 0.6308056969
H 0.7761437507 0.8940064371 1.5157805832
C -0.2210432277 1.1631591487 -0.2937314157
O 0.0056072079 2.3613384831 -0.3365938396
C -1.2506809841 0.5387140879 -1.1917104245
C 1.9856812747 0.0560198626 -0.0038265712
C 3.0026109013 -0.3145453272 1.0755206187
C 2.013454043 -0.9848949485 -1.1178848428
H -3.473878133 -0.7455483394 1.1248193105
H -2.4032905595 0.6563430861 1.2600847325
H -3.7269257561 0.6700745799 0.1039061235
H -1.6581628618 -2.4054923932 0.5355725506
H -0.5338979529 -2.0378090297 -0.7685529393
H -0.7110746012 -0.7620814801 1.9860791077
H 0.5994582293 -1.7481860673 1.372026452
H -1.8976433686 1.3303608317 -1.5758231715
H -0.7102520632 0.112813626 -2.0413793098
H 2.2825759262 1.02439002 -0.4264453434
H 3.0442564847 0.4502394872 1.8470563546
H 3.9914649 -0.4073795258 0.633502666
H 2.7488689762 -1.2629013015 1.5416860345
H 1.7745051912 -1.9720456343 -0.7328396019
H 3.012426256 -1.0238472217 -1.546716325
H 1.3196892389 -0.733545235 -1.9150414457
*
