! pbe def2-sv(p) def2/J RI DEFGRID1 loosescf d4 GCP(DFT/SV(P)) printgap
%output
    printlevel normal
end
* xyz 0 1
C -2.4699942485 -0.4925834268 -0.5682090713
C -1.7547706483 0.1945349746 0.5904090293
C -0.4452169998 0.9026858004 0.2246536076
C 0.8279185707 0.0589381189 0.0055544692
C 0.7871508582 -0.7250702448 -1.3084221289
C 2.0085339987 1.038131112 -0.0620351739
C 1.0615981326 -0.9075769667 1.1687880201
H -3.4776567521 -0.7715154383 -0.2667577002
H -2.5423437368 0.1766405092 -1.4224125318
H -1.9554235672 -1.3951261777 -0.8820369275
H -2.4267651827 0.9604147956 0.987765099
H -1.5818337481 -0.5238224131 1.391980864
H -0.2252633758 1.5989962484 1.0388684334
H -0.616864993 1.5033605796 -0.6723729393
H 1.766706964 -1.1509917709 -1.516543906
H 0.0742248526 -1.5417418446 -1.2607626353
H 0.5150535404 -0.0749337519 -2.1364143852
H 2.1067744333 1.5888528619 0.8708161738
H 1.8652015665 1.753879054 -0.8684634933
H 2.9386403816 0.5034136984 -0.2407647523
H 2.0356219577 -1.3816171957 1.0686994787
H 1.034167804 -0.3778332196 2.1185109288
H 0.3083893042 -1.6909465324 1.1852418492
*
