! pbe def2-sv(p) def2/J RI DEFGRID1 loosescf d4 GCP(DFT/SV(P)) printgap
%output
    printlevel normal
end
* xyz 0 1
C -3.4154501912 -0.4081361076 1.7478068598
N -2.3421904391 -0.0667302274 0.8400993454
C -2.3956522525 -0.320322339 -0.4725331573
O -3.3331809112 -0.8547991946 -1.0381343307
O -1.3251233145 0.0451124509 -1.2132601347
C -0.2118645349 0.6614317354 -0.6261878446
C -0.1858252772 2.0240489764 -0.4782218977
C 0.9538574907 2.6502518259 0.0487522061
C 2.0413559582 1.9101423201 0.4192478879
C 2.0438137648 0.5065002136 0.274815279
C 0.8979929978 -0.1417220874 -0.2593068548
C 0.902364008 -1.5439446764 -0.4089520933
C 1.9971889813 -2.276011547 -0.042458474
C 3.1308188186 -1.6403790106 0.4883275606
C 3.1542038028 -0.2823407 0.6430276666
H -3.7851846877 0.4890246291 2.2422831649
H -3.0639858226 -1.1200863085 2.4935069026
H -4.2153531341 -0.8582648229 1.1636871703
H -1.518120056 0.3683536114 1.2292239028
H -1.043411468 2.6066165594 -0.7774055886
H 0.9563468935 3.7231585546 0.1551583802
H 2.9188368174 2.3893418833 0.8249557603
H 0.0280801509 -2.0231305173 -0.8259249789
H 1.9950643097 -3.3485499109 -0.161530533
H 3.9852006145 -2.2358451731 0.7709299185
H 4.025042321 0.2102093718 1.0480863947
*
