! wb97x-v def2-tzvp def2/J RIJCOSX DEFGRID2 scfconv7 GCP(DFT/TZ) printgap
%output
    printlevel normal
end
%cpcm
    smd true
    smdsolvent "water"
end
* xyz 0 1
C -2.5748142568561185 -0.8693543075659099 0.328023003614157
C -1.1456126253497905 -0.42563848919482483 0.5784741884360456
H -0.9901228158180826 -0.36913322074460414 1.668772649475145
C -0.8062253554766818 0.9253107471890386 -0.04971626409340057
H -0.9997214305425286 0.8789874463861554 -1.1314635229774337
C 0.6645910860030692 1.2375603340844166 0.17609406651744797
H 0.8331216495133672 1.371555218313682 1.2582067034464253
C 1.5522082618471422 0.09634141764296252 -0.31597583953149155
H 1.4681499748240658 0.0020987353598708068 -1.4052165584275247
C 1.0969294396110256 -1.2154682964616126 0.3172604132120517
H 1.2237621005271213 -1.186936066390164 1.4133738514932885
O -0.287551550736248 -1.4316052304471267 0.012390899058209877
O 1.8272675121229303 -2.2690655588398547 -0.250308627890172
O 2.929152551252442 0.36886197062080334 -0.04271706425154223
O 0.9564930444927571 2.4563125644586306 -0.5170997217948803
O -1.6459303314311415 1.907610276898438 0.5663217067638
O -2.916868634634188 -0.9097243689557144 -1.0617397560969295
H -3.258880655561489 -0.16068581889189024 0.8009408927864172
H -2.7219682450415434 -1.8536894087890639 0.7925143113256132
H 1.7464930765958881 -3.03796560388629 0.33027832980111826
H 3.027566139670554 0.463639967867689 0.9160686451514756
H 1.8791911662019984 2.678032548075003 -0.3327451044568482
H -1.4128375975382745 2.7640549557354976 0.18361012712319788
H -2.3519886970941797 -1.5731809544654856 -1.479480007378499
*
