! wb97x-v def2-tzvp def2/J RIJCOSX DEFGRID2 scfconv7 GCP(DFT/TZ) printgap
%output
    printlevel normal
end
* xyz 0 1
C -2.414193229885037 0.05889415483782688 -0.027010902240356998
C -0.9513465753649603 0.49679260939767367 -0.04923630942296902
C -0.003188197914605405 -0.6737282443773741 -0.1212584632644926
C 1.3276110383347386 -0.6183853188302383 -0.008416399207147934
C 2.1386802722391596 0.6187140900397592 0.20842380262128074
H -3.0853131577448223 0.921763657564019 0.020485796653893974
H -2.6199410707984563 -0.5766602196207182 0.8410697082665164
H -2.6644745913598133 -0.5134993213913976 -0.9267499589523417
H -0.7837682026625836 1.1623580280131067 -0.9070913115585191
H -0.7344046476163146 1.1008483157474847 0.8407250663067604
H -0.46279305902324885 -1.6487398730155673 -0.2868856040246074
H 1.8894628598022587 -1.549120052488595 -0.08329719715402896
H 2.7211178522170534 0.5459173309367904 1.1348146376945496
H 1.5219769097270146 1.5185742377675568 0.2613919399971821
H 2.8662427342620314 0.7508658530995027 -0.6013746613302939
*
