! wb97x-v def2-tzvp def2/J RIJCOSX DEFGRID2 scfconv7 GCP(DFT/TZ) printgap
%output
    printlevel normal
end
* xyz 0 1
C 2.5128746031625857 0.06666978408754162 -0.08079302703672506
C 1.0038691932588963 0.06937509013172907 -0.0027702643568055106
C 0.3045165407917159 1.2044837098047811 0.12382091485671835
C -1.1970896611795208 1.279581083623677 0.1300700810699647
C -1.8345773207740348 -0.02197966663284982 -0.3577475274110174
C -1.1545929142566174 -1.2196517081269642 0.30239415816913967
C 0.32433672740074937 -1.2740043156177485 -0.08025322118384633
H 2.962217131250341 0.5388176546076242 0.7996110473071677
H 2.871485467734957 0.6135833780679592 -0.9595820468273816
H 2.903242253170535 -0.9530844935747455 -0.14485281494175897
H 0.8458567901308359 2.147834131497738 0.2072284175424124
H -1.5562065797139226 1.5148747652868892 1.1435669825602126
H -1.5201543027459867 2.120070739933376 -0.49775154141591565
H -2.909510424974542 -0.019581974270189456 -0.1467059737893944
H -1.7178474840326774 -0.09865679610691848 -1.4470840095095072
H -1.2428527611227564 -1.1223493598158236 1.3928585103755127
H -1.6505087798212297 -2.1553480924256796 0.0220085266331352
H 0.8605446028455676 -1.9765120837672534 0.5718693775085542
H 0.4428829882221508 -1.674620724386081 -1.0991649660522533
*
