! pbe def2-sv(p) def2/J RI DEFGRID1 loosescf d4 GCP(DFT/SV(P)) printgap
%output
    printlevel normal
end
* xyz 0 1
C -2.7884879969 -0.2234081133 1.2651847085
C -2.3370866976 -0.2299905872 -0.1945524091
H -3.2327797099 -0.3521082915 -0.8126634059
C -1.3831023169 -1.3829703289 -0.5060936355
C -0.1195984774 -1.3211504885 0.3473531384
C 0.4794106839 0.0981014269 0.4286388773
H 0.1912193927 0.5318354651 1.3955960418
C -0.1457155159 1.0466405388 -0.5674207994
O 0.5067851644 1.8077330753 -1.2586970086
C -1.6529550689 1.082026993 -0.6020241372
C 2.0198709076 0.1382714229 0.3736803368
C 2.6226708345 -0.5707171253 1.5847084525
C 2.5903502002 -0.4326569811 -0.9238700336
H -3.5594917681 0.5291335826 1.4133142141
H -3.2041760121 -1.1920550455 1.5315523419
H -1.966151529 -0.0038444289 1.9387351306
H -1.8820048791 -2.3390035229 -0.3416542129
H -1.109835263 -1.323962488 -1.5629172754
H -0.3411856874 -1.6762869245 1.3533809447
H 0.6154627665 -2.0001995907 -0.0812792
H -1.9564516834 1.8943091057 0.0639022601
H -1.9427898788 1.3830114241 -1.6110750066
H 2.3021981701 1.197457422 0.4129970478
H 2.3775391132 -1.6293966084 1.5732711633
H 2.2501870006 -0.1381081405 2.5103588469
H 3.7051328789 -0.4713639435 1.5729522736
H 3.6651721532 -0.2706864341 -0.9526461574
H 2.1494811701 0.0675254845 -1.7825444763
H 2.4100720249 -1.5012776699 -1.0077461647
*
