! r2scan-3c def2/J RI DEFGRID2 scfconv6 printgap
%output
    printlevel normal
end
* xyz 0 1
C -1.7757301214 -0.0116591522 0.1864424245
C -0.9074002721 -1.2530530817 0.3645503593
C 0.2408577159 -1.2537545098 -0.640472145
C 1.092752133 0.0107433276 -0.504910457
C 0.215539059 1.2606666468 -0.6450070227
C -0.927496772 1.2430784876 0.3663135216
O 1.7580433448 -0.0420937378 0.7453983848
H -2.5884465764 -0.019100894 0.9149196673
H -2.2169474585 -0.0148328671 -0.8131492606
H -0.4886624054 -1.2616725498 1.3724926844
H -1.5061798936 -2.1562800443 0.2353929337
H 0.8791883209 -2.1228612226 -0.4744901063
H -0.1515014867 -1.2998163343 -1.6574840642
H 1.8483074972 0.0129317297 -1.3103365156
H 0.8255391523 2.1562183094 -0.5054009329
H -0.18781408 1.2829077677 -1.6587482164
H -0.5122721815 1.2496751085 1.3761623407
H -1.5413032122 2.1372138135 0.2436217135
H 2.2992615488 0.751221598 0.8489781172
*
