! pbe def2-sv(p) def2/J RI DEFGRID1 loosescf d4 GCP(DFT/SV(P)) printgap
%output
    printlevel normal
end
* xyz 0 1
C -2.4684150491 -0.5573911916 -0.1530471906
C -1.0377862849 -0.2012721738 0.2648065792
H -0.9355122359 -0.2712168613 1.3574309584
C -0.6390827065 1.2200546516 -0.1808585753
H -1.1187298916 1.4519151241 -1.1436566036
C 0.8906210553 1.308674776 -0.4065725165
H 1.1884829284 2.3225054057 -0.1130767218
C 1.6226525448 0.277636208 0.4657333258
H 2.6986270891 0.3229122947 0.2388583338
C 1.1509340484 -1.1356173297 0.077541788
H 1.2641737483 -1.7802234235 0.9702884202
O -0.1954669624 -1.1688130903 -0.3469415645
O 1.9315476406 -1.5781704257 -0.9776848276
O 1.3869789877 0.4424666435 1.838248242
O 1.2434854801 1.1755285251 -1.7569549739
O -0.9665368034 2.1861965501 0.786191417
O -2.8994961502 -1.7750772709 0.396007672
H -2.5115545176 -0.5884710599 -1.2493380236
H -3.1630902259 0.198919179 0.214445361
H 1.6541585699 -2.4684683333 -1.2459662515
H 1.6177004571 1.3443816097 2.1045150081
H 1.3085220353 0.2341775272 -1.9862410012
H -1.9249462219 2.2312035925 0.9052913456
H -2.2900415049 -2.471370397 0.1122704015
*
