! pbe def2-sv(p) def2/J RI DEFGRID1 loosescf d4 GCP(DFT/SV(P)) printgap
%output
    printlevel normal
end
* xyz 0 1
C -3.5108247378 0.48685294 -0.2247234969
O -2.1202676936 0.561591869 -0.5525020194
C -1.2986804185 -0.284911698 0.0600665417
O -1.6799172277 -1.1125188256 0.860835882
C 0.137241044 -0.0404218039 -0.3356865669
C 0.9669719431 -1.3292923793 -0.2516640384
C 2.4223955888 -1.0436550368 0.1308858888
C 2.8752129514 0.2762580092 -0.4835246914
C 2.1092301911 1.4472205992 0.1449630587
C 0.7117116545 1.0243728665 0.6115602127
H -3.6487943541 0.621394677 0.8486745179
H -3.9084220769 -0.4864773305 -0.5141010552
H -3.9868729595 1.2853571576 -0.7846976862
H 0.1332865779 0.3696088886 -1.3483517325
H 0.5096602562 -1.990007421 0.488207607
H 0.9303299845 -1.8369973615 -1.2167394716
H 2.524996191 -0.9879032589 1.2152755913
H 3.0541546262 -1.8608947755 -0.2180416772
H 3.9466174188 0.4135958589 -0.3353773701
H 2.6927219127 0.2420341103 -1.5588033307
H 2.658753281 1.8337414905 1.0040797837
H 2.0232265058 2.2550083948 -0.5826329127
H 0.7519651157 0.6026258173 1.6171213445
H 0.0503292909 1.8918437378 0.6394291083
*
