! wb97x-v def2-tzvp def2/J RIJCOSX DEFGRID2 scfconv7 GCP(DFT/TZ) printgap
%output
    printlevel normal
end
* xyz 0 1
C 1.8664485372799073 2.7602845513314125 1.0478641529613655
C 1.9658153393564608 1.6422128347203373 0.03599342911316379
C 2.8373098979928213 0.44930069071383955 0.49737405437009985
C 2.009768727990201 -0.7429974724753381 0.10975337512760576
C 2.300450294434427 -2.0970059890822017 0.04771761849917989
C 1.2901639919482863 -2.9919810091189043 -0.3200747858189666
C 0.006571386162786649 -2.5319402405928297 -0.6120453900445326
C -0.27626424736818855 -1.1723313085123928 -0.5529232548604661
C 0.7305013383799602 -0.2854846898717914 -0.1969577425663929
O 0.5847030815672332 1.0627935985573693 -0.10619194916730715
O -1.541068673646254 -0.7081403406963924 -0.9279937806632527
C -2.2922039584383658 -0.1154753894437651 0.07762130480989819
O -1.9639907432138133 -0.131547606787684 1.257506471890099
N -3.395116511677654 0.44891076137670266 -0.4273416596218624
C -4.412136432074643 1.011207496363009 0.45298298708744456
C 2.3667378093541522 2.1315452856280266 -1.3437703285801554
H 2.855132250725988 3.206241024962875 1.1921259259800787
H 1.1848435229470489 3.5409800435068703 0.697567013182042
H 1.5137194345001483 2.38055421149039 2.0108377840892695
H 3.8171489160405834 0.46739901809958395 0.012526101640762996
H 2.995305254523226 0.47353378437738586 1.5824020889937644
H 3.2973126689339534 -2.4581443713816267 0.280647312931482
H 1.5007917987994135 -4.0543992171028655 -0.37807586964161605
H -0.7840736996461743 -3.218770427901607 -0.8961800391264546
H -3.590195326483634 0.3341685828948511 -1.410071860422393
H -4.858851752866416 0.24161742350598595 1.0913628646933922
H -5.192749789183765 1.4529211212282107 -0.16686461340594774
H -3.9838036434998814 1.7919521309611115 1.0870145933964184
H 3.3651093196794104 2.576919864326342 -1.30022338253026
H 1.6627292684966906 2.8870867940010037 -1.7037416882165182
H 2.390326226194053 1.29904795212983 -2.05464557271108
*
