! pbe def2-sv(p) def2/J RI DEFGRID1 loosescf d4 GCP(DFT/SV(P)) printgap
%output
    printlevel normal
end
* xyz 0 1
C -1.2631383306 -0.7263670338 -0.1054756248
C -8.52505e-05 -0.0029523254 0.3622584308
C 1.2580415655 -0.7348036788 -0.1052503131
O 0.0045925698 1.3520149496 -0.0580977702
H -2.1449083494 -0.1654720765 0.1942459574
H -1.2627353059 -0.8270491113 -1.1888216081
H -1.3086881528 -1.7166531397 0.3372222708
H -0.0002183098 0.0603011998 1.4565965719
H 2.1440249345 -0.1854940383 0.2033402738
H 1.2616774965 -0.8259103896 -1.1895627109
H 1.2915676187 -1.729268031 0.3291704182
H 0.0081300449 1.3751831336 -1.0256627484
*
