! wb97x-v def2-tzvp def2/J RIJCOSX DEFGRID2 scfconv7 GCP(DFT/TZ) printgap
%output
    printlevel normal
end
%cpcm
    smd true
    smdsolvent "water"
end
* xyz 0 1
C 1.168655987652627 -0.6942337242885078 0.0004927204029337419
C 1.1686450784809155 0.6942618164214444 0.000397070145319714
C 2.368785969541694 1.3949589042266475 -0.00010995117664453163
C 3.5833255045307175 0.6985610622582249 -0.00027001119278402384
C 3.583336596557931 -0.6984913468147143 1.521697621290664e-05
C 2.368809362286121 -1.3949103139930719 0.0004126976955674227
Cl 2.320385540736805 -3.1234442268954656 0.0008053596418112088
Cl 5.073879313012766 -1.5742431265281827 -7.637331558033795e-05
Cl 5.073852999857843 1.574336385443295 -0.0008856240621876021
Cl 2.3203319276614893 3.1234924431506004 -0.0004734555697499492
O -9.035053238660973e-06 1.4160320887010496 0.0007648918112881627
C -1.1686513906962939 0.694242728869389 0.00048482843302916816
C -1.1686402051530052 -0.6942529025240266 0.0003983801570598546
C -2.3687812556179617 -1.3949500119815312 -0.00010960205773724014
C -3.5833208459048715 -0.6985516769407701 -0.00027999704151404983
C -3.5833321164315013 0.6985008857668444 -5.50784257029751e-08
C -2.3688044032760645 1.3949196053375124 0.0004002903900567791
Cl -2.3203814605967854 3.1234535348552503 0.0007917984995193377
Cl -5.073873388684849 1.574253971598388 -9.898263311816308e-05
Cl -5.073847662126098 -1.5743286047354286 -0.0009008994039057077
Cl -2.3203278949272708 -3.123483138402276 -0.0004590782367523342
O 1.3781428519802293e-05 -1.4160227962758969 0.0007775081477132222
*
