! pbe def2-sv(p) def2/J RI DEFGRID1 loosescf d4 GCP(DFT/SV(P)) printgap
%output
    printlevel normal
end
* xyz 0 1
C -3.0585686563 0.7221953568 0.6129221991
O -1.8553550546 0.7076296717 -0.1603080541
C -1.0696928458 -0.3628735714 -0.1109722399
O -1.3191897586 -1.3412858334 0.5620898402
C 0.126863343 -0.2214726779 -1.0311348582
C 1.1672439054 -1.3094099089 -0.7547642568
C 1.859312891 -1.0841505864 0.5874801542
C 2.4888266316 0.3040929828 0.6477418057
C 1.4287221114 1.3759537682 0.4141537113
C 0.7581402417 1.1726349584 -0.9412525788
H -3.067504606 1.6506322276 1.1797530449
H -3.0813859393 -0.1398330183 1.2806760487
H -3.9035662394 0.6892308923 -0.0732108089
H -0.2772127811 -0.3583553873 -2.0417142267
H 0.6778991253 -2.2849408366 -0.7541963825
H 1.9088771653 -1.294301147 -1.5546772188
H 1.124366153 -1.1899820234 1.3885640089
H 2.6235921865 -1.8490711037 0.7348245696
H 2.962529217 0.4533149506 1.6195150057
H 3.2608687239 0.3857823105 -0.120261605
H 0.6767903162 1.3194404582 1.2053888939
H 1.8833798849 2.3671741599 0.4532774939
H -0.0054597351 1.9332441839 -1.1040407052
H 1.507065141 1.2623094976 -1.7297435995
*
