! pbe def2-sv(p) def2/J RI DEFGRID1 loosescf d4 GCP(DFT/SV(P)) printgap
%output
    printlevel normal
end
* xyz 0 1
C -2.3096130917 -0.8834464193 0.7259998488
C -0.8588587233 -0.3835757973 0.737873287
H -0.5723114424 -0.1422174776 1.7705227468
C -0.6659281207 0.8680726957 -0.1309406653
H -0.950980974 0.6233909337 -1.1637806061
C 0.8145038321 1.2933396688 -0.1365156884
H 0.8994610522 2.1529513885 0.5383735854
C 1.7456659083 0.1798632419 0.3908826925
H 2.7476249163 0.3474345204 -0.0324698961
C 1.2539888816 -1.1738011043 -0.1477111066
H 1.8629308962 -2.0033568397 0.2389484813
O -0.0672168845 -1.4656554696 0.2509708123
O 1.3957915924 -1.2325222575 -1.5326382314
O 1.7791988985 0.2429119536 1.7919461157
O 1.1505747357 1.6270786361 -1.4648697593
O -1.4157731168 1.9588357623 0.3439529974
O -2.7980813168 -1.0934313116 -0.5745847758
H -2.9567177203 -0.1380408926 1.1895535148
H -2.3525174132 -1.8082104501 1.3125848475
H 1.1251769943 -0.3889394043 -1.9392251055
H 2.4445347861 -0.3696052717 2.1380449054
H 1.8894341095 2.2510829286 -1.4845041391
H -2.3404365201 1.8547306347 0.0805459093
H -2.2612819477 -1.783711669 -0.9897407509
*
