! pbe def2-sv(p) def2/J RI DEFGRID1 loosescf d4 GCP(DFT/SV(P)) printgap
%output
    printlevel normal
end
* xyz 0 1
C -3.0201781403 0.4626493838 0.5853999699
C -1.5089777509 0.5317763956 0.3528354891
H -1.0399477972 0.8575407358 1.2886835133
C -1.1434607668 1.5013061311 -0.7671302167
C 0.3682321 1.5865522916 -0.9980278727
C 1.0708619321 0.2182134412 -0.9333114129
H 1.7405780652 0.1302283885 -1.795333501
C 0.0390865278 -0.9211468654 -1.0408780345
C -0.9515810178 -0.8476327163 0.0846859605
O -1.2746353653 -1.822393635 0.7372351414
C 1.9210056321 -0.029092784 0.2955413684
C 1.8149809256 0.617357203 1.4456923137
C 2.9459130106 -1.1233613165 0.1443345812
H -3.5311756475 0.1915550672 -0.335891175
H -3.2436525892 -0.2912059675 1.3364180035
H -3.396382873 1.4237458478 0.9239688884
H -1.6412354976 1.1786801464 -1.68377995
H -1.5279441485 2.4927734453 -0.5236812078
H 0.537629445 2.0295881843 -1.9802081616
H 0.8164425261 2.2583175176 -0.2676636612
H -0.5123092923 -0.8214963975 -1.978094052
H 0.5209465597 -1.8993707331 -1.029179759
H 2.4512360514 0.3663284275 2.27801239
H 1.11474683 1.4128323494 1.6246595153
H 3.9486125532 -0.7050984028 0.214686021
H 2.8370779189 -1.8595793549 0.9381517875
H 2.8560425718 -1.629619567 -0.8124018304
*
