! wb97x-v def2-tzvp def2/J RIJCOSX DEFGRID2 scfconv7 GCP(DFT/TZ) printgap
%output
    printlevel normal
end
* xyz 0 1
C -3.44820495652225 -0.1214012774232875 0.00032280466498403886
C -3.0053589679342356 1.2040131372329885 0.0002466667539546605
C -1.6435564478600906 1.4996586562414032 -8.020135159177183e-06
C -0.7309301264108415 0.44534038709716767 -0.00015643483662394715
C -1.1776462990380685 -0.8912826151210116 -0.00011193964027922347
C -2.53486401978295 -1.178428465174525 0.0001194541233298082
C -1.0340515547069458e-05 -1.8313315761316074 -0.00024105662293769553
C 1.1776403879276438 -0.8913010749880633 -8.40503896042181e-05
C 0.7309443992914492 0.4453299928750709 -0.0001514863006779066
C 1.6435864854221507 1.4996331749234646 -6.184973960799926e-05
C 3.0053852862969177 1.2039662140700946 0.00017355908866452263
C 3.4482108880455264 -0.12145398486391511 0.0003214160843401827
C 2.534852865056974 -1.178467762615196 0.00017395211057917709
H -4.513338422726524 -0.3310970252952737 0.0005622724664255652
H -3.7310608124478435 2.0114724893172715 0.0004122780383751362
H -1.3023568484009524 2.530730632515815 -3.185349411699358e-05
H -2.8846049059698884 -2.206893279580628 0.00019159599379104842
H -3.40617698897535e-05 -2.4884774412498083 0.8785096771210291
H 3.134938544898794e-06 -2.4880541154148457 -0.8793192748551555
H 1.302407600056104 2.5307119033213126 -0.0001647183799158131
H 3.7310995615791827 2.011414377950735 0.0002809602527780942
H 4.513340659786971 -0.3311684685067852 0.0005886446624483757
H 2.8845788201956135 -2.206937689423869 0.00029503570480348014
*
