! pbe def2-sv(p) def2/J RI DEFGRID1 loosescf d4 GCP(DFT/SV(P)) printgap
%output
    printlevel normal
end
* xyz 0 1
C 1.884982572 0.9081200777 -0.2403572002
C 0.9510173463 -0.0853811007 0.4371051555
C -0.3841612355 -0.2627199042 -0.2927929606
H -0.1798773449 -0.4477193345 -1.3613051856
C -1.2893750554 0.9597300957 -0.1590132448
O -0.9957392658 -1.4190524064 0.2635868483
H 2.8396201608 0.9290746345 0.2782101865
H 1.4677887801 1.9112066055 -0.2252104046
H 2.0610964002 0.6213019953 -1.2745273653
H 0.7470713028 0.2254314111 1.4631640997
H 1.4263571683 -1.0675451192 0.4799965283
H -0.8030074911 1.8336534631 -0.5800464345
H -2.2263113312 0.8003404736 -0.6884524894
H -1.5066236555 1.1439573558 0.8905845103
H -1.8724355759 -1.5340767018 -0.1271190614
*
