! wb97x-v def2-tzvp def2/J RIJCOSX DEFGRID2 scfconv7 GCP(DFT/TZ) printgap
%output
    printlevel normal
end
%cpcm
    smd true
    smdsolvent "water"
end
* xyz 0 1
C -3.3699257957852504 -0.44801938771576444 1.6959506868341603
N -2.3332346668107418 0.012598203740461169 0.7782913194169532
C -2.359159521695124 -0.3447603519940325 -0.5095927243204378
O -3.2287877395847087 -1.0252573381202994 -1.042542939608984
O -1.3277816942167184 0.11317828759730662 -1.3151003169422766
C -0.2176931859526173 0.7450461786267081 -0.7355206753716483
C -0.17435133243747533 2.1142554895002545 -0.6936205498293044
C 0.967461650513552 2.753628201127643 -0.16630705072530017
C 2.0269640736966523 2.014711546498585 0.30233947642714126
C 1.9964225700367673 0.5988887713640577 0.26341675973771617
C 0.8476146653024433 -0.06657352521748662 -0.27271391210220153
C 0.8165892508009818 -1.480641966039571 -0.31708852600131565
C 1.8822970397239025 -2.209662908829476 0.15575839497625055
C 3.017737112733807 -1.5605602405296806 0.6870515255346055
C 3.0738994730191407 -0.18823271721422688 0.7384107082068967
H -3.3410216067788636 -1.5361678605725362 1.8105262477498796
H -4.360883949331756 -0.15501807807413806 1.3382349909733762
H -3.193166747184023 0.01495417187355843 2.6672335072308986
H -1.5746125737179497 0.5772290880665198 1.1308517380828897
H -1.016150604343922 2.690021852349616 -1.063604049555854
H 0.9985306356384603 3.837584873113233 -0.13518234099009968
H 2.905183798372806 2.5060386742710055 0.7101706103938177
H -0.052630823575831195 -1.9841105041743592 -0.7272555463056012
H 1.85348906714033 -3.29388681710881 0.11940912656224252
H 3.8493830636589808 -2.1529777021010736 1.0548231077786376
H 3.946111937301226 0.3155999536446899 1.1446213727421108
*
