  24
        -31.80943252
 C         -2.6762108421       -1.6837699310        0.8299933043
 C         -2.3237607481       -1.0065406673       -0.4971466628
 C         -1.2963250252        0.0726482911       -0.2937022333
 C         -1.7067821775        1.3780310046       -0.1884332270
 C         -0.7997940793        2.4214794794        0.0402655033
 C          0.5327648011        2.1535600675        0.1665780004
 C          1.0062718532        0.8288874499        0.0671425198
 C          0.0868378800       -0.2311362765       -0.1652282959
 C          0.6012361432       -1.5434363136       -0.2595792355
 C          1.9388655903       -1.7934235922       -0.1270973629
 C          2.8405800404       -0.7448765441        0.1056658810
 C          2.3807612170        0.5377537597        0.1980244760
 H         -3.0770619698       -0.9520857337        1.5278003576
 H         -1.7943090080       -2.1332347269        1.2797994370
 H         -3.4222256426       -2.4588083091        0.6722396823
 H         -3.2279435411       -0.5615185204       -0.9168068617
 H         -1.9620547444       -1.7516608674       -1.2069059410
 H         -2.7573915385        1.6134460033       -0.2840990545
 H         -1.1660160464        3.4347061208        0.1155153358
 H          1.2436754061        2.9473783071        0.3448121034
 H         -0.0704437622       -2.3674615395       -0.4402495281
 H          2.3103442433       -2.8048533156       -0.2020663171
 H          3.8939492692       -0.9595373257        0.2079465113
 H          3.0647340790        1.3558665629        0.3739526421
  24
        -31.80772995
 C         -3.6064999304       -1.0307723960        0.0330608713
 C         -2.1112762939       -1.3243235123       -0.0078023659
 C         -1.2075283237       -0.1177236925        0.0211098748
 C         -1.6995612422        1.1607514252        0.0816221859
 C         -0.8509467918        2.2779244057        0.1076074101
 C          0.5029088190        2.1177861535        0.0724573382
 C          1.0619972685        0.8241351453        0.0099447820
 C          0.2048832465       -0.3093587973       -0.0159007490
 C          0.8039856455       -1.5870591412       -0.0778632338
 C          2.1632895187       -1.7347366264       -0.1124473357
 C          3.0031969189       -0.6126992915       -0.0873267376
 C          2.4599556168        0.6390840007       -0.0273009003
 H         -3.8764051557       -0.5043283703        0.9454189571
 H         -4.1584027189       -1.9676238574        0.0069716534
 H         -3.9107917826       -0.4348818237       -0.8240256375
 H         -1.8940706934       -1.8933744158       -0.9165226824
 H         -1.8591063290       -1.9618483400        0.8446335823
 H         -2.7628297542        1.3352076359        0.1106410197
 H         -1.2851200798        3.2658138048        0.1555354911
 H          1.1652392506        2.9711669301        0.0917346236
 H          0.1809455587       -2.4668944820       -0.0982926585
 H          2.5989476904       -2.7219384034       -0.1595307996
 H          4.0744425978       -0.7459440885       -0.1155410211
 H          3.0945272757        1.5137463476       -0.0071922379
  24
        -31.80591159
 C         -3.4305891330       -1.1195620326        0.5799296913
 C         -2.1971640761       -1.2372430188       -0.3161994051
 C         -1.2228172536       -0.0961302438       -0.1580925534
 C         -1.6992471393        1.1895259726       -0.0715196612
 C         -0.8490091825        2.2898185927        0.0936834511
 C          0.5005830865        2.1052683278        0.1734220641
 C          1.0465186636        0.8102704611        0.0654325930
 C          0.1853091509       -0.3095993176       -0.1140490347
 C          0.7918584079       -1.5789222960       -0.2522670757
 C          2.1489772747       -1.7351804600       -0.1978231903
 C          2.9881434080       -0.6295920845       -0.0018844978
 C          2.4430587587        0.6155975870        0.1239012559
 H         -4.0121825616       -2.0366445715        0.5232011979
 H         -4.0735249617       -0.2975665095        0.2789299557
 H         -3.1310815741       -0.9633872597        1.6137337485
 H         -2.5155479010       -1.2833186185       -1.3621029775
 H         -1.7085558646       -2.1809289692       -0.0814526075
 H         -2.7608242277        1.3725988141       -0.1312669347
 H         -1.2736722227        3.2805541092        0.1614872937
 H          1.1697293382        2.9422587255        0.3109326463
 H          0.1809018241       -2.4522993017       -0.4158319072
 H          2.5835407830       -2.7177833863       -0.3081053430
 H          4.0577647340       -0.7700553243        0.0429507057
 H          3.0746566934        1.4808508711        0.2668460616
