! pbe def2-sv(p) def2/J RI DEFGRID1 loosescf d4 GCP(DFT/SV(P)) printgap
%output
    printlevel normal
end
* xyz 0 1
C -2.377197958 -0.7856305801 -0.0878846497
C -1.0116204746 -0.2718367792 0.388148604
H -1.1244775444 0.0897739935 1.4213877561
C -0.5145796337 0.8797840971 -0.5001542747
H -0.4418373908 0.5197130118 -1.532516734
C 0.8769002089 1.3466922024 -0.0316303984
H 0.7640199627 2.0006027419 0.8424174048
C 1.7641163965 0.1497582959 0.4052913431
H 2.7619153473 0.2943424545 -0.0201828034
C 1.1832665878 -1.1711024172 -0.1136357608
H 1.7711606835 -2.0070595691 0.2927551303
O -0.1080276697 -1.3847489796 0.402875474
O 1.2182317768 -1.1583532078 -1.5048033504
O 1.9427193862 0.0919275441 1.7971692551
O 1.5099926502 2.1443638635 -0.9968807905
O -1.4432278553 1.9296368163 -0.5467755392
O -2.9603470225 -1.6709089902 0.8326305003
H -2.2569884179 -1.2638056006 -1.0678263245
H -3.0610519018 0.0587756965 -0.187814637
H 1.0357658352 -2.04227214 -1.8583286824
H 1.1652684251 -0.3089879545 2.2133715792
H 1.5854786141 1.6507501581 -1.8264681864
H -1.4317826148 2.4247548483 0.2853918865
H -2.3540529072 -2.413019557 0.9717573479
*
