! wb97x-v def2-tzvp def2/J RIJCOSX DEFGRID2 scfconv7 GCP(DFT/TZ) printgap
%output
    printlevel normal
end
* xyz 0 1
C -2.7703608848457923 -0.7873704401998568 -0.00014388096570561369
O -1.7906995519528404 0.26339691169500523 8.979455568932748e-05
C -0.47153517543244416 -0.11039506232519171 4.604596921626348e-05
C 0.0008741069233933617 -1.418744121323977 4.5655163268221096e-05
C 1.3781334735574722 -1.658452073561889 2.7432308259717113e-06
C 2.2758610942041493 -0.5980102036813795 -4.3131122087997465e-05
C 1.8045557682846627 0.715949356691091 -4.381577883405719e-05
C 0.44023864144609653 0.9613758654400807 1.0187014107843855e-06
O -0.00926269162801529 2.2626907689741955 -4.808208812691663e-06
H -2.674195580007128 -1.407820606601716 -0.8978192565067931
H -3.738978917916627 -0.2870970111107285 -0.00018339322773348302
H -2.6743960876076454 -1.4080512911315997 0.8973934095495019
H -0.6912161177447614 -2.2523298139429437 8.240535316845055e-05
H 1.7373911223873002 -2.6821711664447707 4.049732464880814e-06
H 3.3448445564758207 -0.782923536504458 -8.235329812265592e-05
H 2.4886777147810255 1.5587547072659844 -8.761823521378576e-05
H -0.9785904252976361 2.249580497074632 -7.749605031497362e-06
*
