! pbe def2-sv(p) def2/J RI DEFGRID1 loosescf d4 GCP(DFT/SV(P)) printgap
%output
    printlevel normal
end
* xyz 0 1
C -2.2371149805 -0.9706909982 -0.410941798
C -1.1706794119 -0.2120084588 0.3876979604
H -1.6440498304 0.2179536196 1.2787316
C -0.5720763101 0.9333059985 -0.4301862805
H -0.3977447139 0.6057418856 -1.468179749
C 0.7796783877 1.3102715285 0.1848444008
H 0.6569919773 1.465432087 1.2669074046
C 1.7522671066 0.1460283685 -0.0311027564
H 2.0923549134 0.1781288958 -1.0758042041
C 1.0254277097 -1.2070113039 0.165173844
H 1.6441225823 -1.8486226349 0.8102720522
O -0.1751436965 -1.1072162569 0.8874613204
O 0.849438828 -1.7718049056 -1.0981700054
O 2.8239729643 0.3188010356 0.8603659386
O 1.2246534192 2.4888615863 -0.4369200923
O -1.4776079894 2.0025478168 -0.4084596448
O -2.9599546098 -1.8724418211 0.3896181105
H -1.7588003772 -1.4939218865 -1.2495870087
H -2.9570309279 -0.2495479424 -0.801814168
H 0.5883134833 -2.7024255417 -1.0222120367
H 3.5551454996 -0.2719619259 0.6297446074
H 2.0662831006 2.7570195739 -0.0415863389
H -1.0099865895 2.7937417585 -0.7218493272
H -2.3305430457 -2.3828450591 0.9204704514
*
