! wb97x-v def2-tzvp def2/J RIJCOSX DEFGRID2 scfconv7 GCP(DFT/TZ) printgap
%output
    printlevel normal
end
%cpcm
    smd true
    smdsolvent "water"
end
* xyz 0 1
C -2.415469348296955 0.004974855507288058 0.00021601988999390056
C -0.9848102559179555 0.5298448503329085 -0.00015533825087425397
C 0.033496291062782686 -0.6244178838603525 -0.00011329511486651554
C 1.4104843121520958 -0.16107607891917397 -0.001942198997122298
C 2.543886705319564 0.2558768493509727 0.0018304408233346368
H -2.607872606206247 -0.6106755915709826 -0.8850764167721061
H -2.6076517475830174 -0.6100996343132629 0.885946342407077
H -3.1346564385702695 0.829447216497182 4.755591262105643e-06
H -0.8109088279766746 1.1565284543621044 -0.8816343524412846
H -0.8104678486691478 1.1570914758206514 0.8808391460135881
H -0.13272109079647534 -1.2590441862354917 -0.8797230373754652
H -0.13184962722241855 -1.258430176659888 0.8800891734623822
H 3.5480412471274305 0.616148327693972 8.810470638419267e-05
*
