! wb97x-v def2-tzvp def2/J RIJCOSX DEFGRID2 scfconv7 GCP(DFT/TZ) printgap
%output
    printlevel normal
end
* xyz 0 1
C -3.4791886420184195 0.33539436287284063 -7.901871422443451e-05
C -2.740808639486492 1.5161580927997544 -8.701601160335423e-05
C -1.349355422819493 1.4590475223085657 -2.3102896717069434e-05
C -0.7056488018345908 0.22675600400596393 2.5294494951441427e-05
C -1.4399187701021092 -0.9623888874966532 1.6498860321596265e-05
C -2.836048212993773 -0.8962657721985583 -3.1035863620603176e-05
O -0.7711972906222769 -2.154493237014164 7.096205776776864e-05
I 1.409578967467709 0.15034849176648613 7.471413461344497e-05
H -4.563792588175044 0.3682266720437362 -0.00011571800686568857
H -3.2377498423549165 2.4802559101946846 -0.00012032862472328373
H -0.7644532475809752 2.3720210238248054 -3.711038543376746e-05
H -3.4062541159413304 -1.8215351631893484 -2.581393563481674e-05
H -1.4157188696604297 -2.876808814848848 0.00010822144172899825
*
