  14
        -18.82211097
 C          2.0144832962        0.7728236003       -0.0003629882
 C          0.7847830721       -0.0912495486       -0.0001718395
 O          0.8416383266       -1.3106705168        0.0011951710
 C         -0.4954547601        0.6437266781       -0.0018969926
 C         -1.6673233768        0.0279163850       -0.7401254795
 C         -1.6667349112        0.0324628045        0.7411334528
 H          2.0060038095        1.4117649227        0.8793992143
 H          2.9081911813        0.1552572619        0.0009843078
 H          2.0074387900        1.4098113202       -0.8815519258
 H         -0.4099319481        1.7207836790       -0.0048887573
 H         -2.3237304227        0.6987273224       -1.2706427546
 H         -1.4745999448       -0.9089719234       -1.2407966422
 H         -2.3226475177        0.7067126625        1.2679065034
 H         -1.4738149920       -0.9012607298        1.2475853984
  14
        -18.82109190
 C          1.4337319920        0.9385532403       -0.2716921121
 C          0.7609535980       -0.3635796874        0.0558468029
 O          1.4067311063       -1.3893776588        0.2247726734
 C         -0.7059153156       -0.3786346681        0.2021187797
 C         -1.4894199791        0.8541464307        0.5929328084
 C         -1.6085734991        0.3300183216       -0.7890566114
 H          1.4749454375        1.5400281220        0.6346982098
 H          2.4504798043        0.7459420280       -0.6029641209
 H          0.8904904982        1.4926333846       -1.0295868904
 H         -1.0613109489       -1.3329984554        0.5737771363
 H         -2.3110934365        0.7071477675        1.2758278463
 H         -0.9429306656        1.7688149144        0.7531110779
 H         -2.5092524532       -0.1900532860       -1.0747076572
 H         -1.1451898897        0.8723378893       -1.5974525577
  14
        -18.82094726
 C          1.4436778152        0.9685247800        0.0208946055
 C          0.7624231832       -0.3695619588       -0.0038906839
 O          1.4053276933       -1.4110065965       -0.0177345135
 C         -0.7112605056       -0.4128064624       -0.0144022496
 C         -1.5552650520        0.5876021711        0.7479171475
 C         -1.5465436217        0.6255788955       -0.7338095945
 H          1.1737020474        1.5412673098       -0.8621639986
 H          1.1391049521        1.5298070325        0.8997505001
 H          2.5200939556        0.8220172585        0.0399380610
 H         -1.0769467300       -1.4332237279       -0.0414475533
 H         -2.4239391204        0.1973627697        1.2543230943
 H         -1.0479799456        1.3691427140        1.2892797210
 H         -2.4094739596        0.2625134847       -1.2694209180
 H         -1.0330170815        1.4338638571       -1.2278616295
