! r2scan-3c def2/J RI DEFGRID2 scfconv6 printgap
%output
    printlevel normal
end
%cpcm
    smd true
    smdsolvent "water"
end
* xyz 0 1
C -2.1263336996 -0.5079469896 0.7071066988
C -1.3445564676 -0.3594471589 -0.6018992755
C -0.0068499068 0.2674165312 -0.308580671
O 0.2270421846 1.4576213726 -0.3535456606
O 0.8860910874 -0.6462435547 0.049078674
C 2.2017311836 -0.2231829253 0.4192215101
H -3.1016409291 -0.9394097461 0.50378532
H -1.5902444074 -1.1569483778 1.3946545929
H -2.2635292899 0.4634798354 1.1761875789
H -1.8867264522 0.2886585371 -1.289293921
H -1.1848048207 -1.3384150328 -1.0511594419
H 2.8787232892 -0.4251319771 -0.4101051213
H 2.4854417895 -0.806394519 1.2916426379
H 2.1986834422 0.8437443219 0.645129708
*
