! r2scan-3c def2/J RI DEFGRID2 scfconv6 printgap
%output
    printlevel normal
end
%cpcm
    smd true
    smdsolvent "water"
end
* xyz 0 1
C 1.9938715051 -0.8003147148 -0.3601748357
O 1.1371950585 0.3362196125 -0.4086863669
S -0.3691384411 0.0530903688 0.0907646204
O -0.3186924643 -0.3460527187 1.4801593777
O -0.9663577757 -0.9202442838 -0.7970139687
C -1.0677265641 1.6727166925 -0.1195577568
H 2.043286235 -1.1693354564 0.6653627296
H 2.9694781494 -0.4657765089 -0.7028422027
H 1.5947441737 -1.5803108796 -1.010382292
H -0.2601064894 2.2979749499 -0.4729357089
H -1.8606065928 1.5956219955 -0.8500762971
H -1.4327883166 2.0007171211 0.8434148065
*
