! r2scan-3c def2/J RI DEFGRID2 scfconv6 printgap
%output
    printlevel normal
end
%cpcm
    smd true
    smdsolvent "water"
end
* xyz 0 1
C -2.5513152381 -0.9112167554 0.3031823741
C -1.1189539141 -0.4563392866 0.6269357403
H -0.9820135352 -0.4303347605 1.7202155279
C -0.8371065769 0.9405507309 0.0476201193
H -1.0928002551 0.9372232724 -1.0178497583
C 0.6492459218 1.2888840996 0.2134688603
H 0.8704173976 1.4132818492 1.2885558273
C 1.5425052256 0.1643193494 -0.323879445
H 1.3984687272 0.0960714227 -1.4135902671
C 1.1249803818 -1.1717032357 0.3182607856
H 1.3083824779 -1.1161209934 1.4035043032
O -0.2438411245 -1.4172190034 0.063844105
O 1.8472165616 -2.250139273 -0.1304921902
O 2.8919290043 0.3907682217 -0.0163793464
O 0.9834409532 2.4699905429 -0.4769446339
O -1.6451945793 1.933731477 0.6249747988
O -2.7502523618 -1.0897529435 -1.0731454334
H -3.2504641857 -0.1338088989 0.6160180146
H -2.7600245624 -1.8380024052 0.8501363384
H 1.7456951774 -2.3492245658 -1.0905234439
H 3.1358696339 1.2690482979 -0.3480999633
H 0.278967829 3.1215159073 -0.3390898601
H -1.5226394538 1.9440840639 1.5862186865
H -2.1373974911 -1.7731241899 -1.3807304225
*
