! wb97x-v def2-tzvp def2/J RIJCOSX DEFGRID2 scfconv7 GCP(DFT/TZ) printgap
%output
    printlevel normal
end
* xyz 0 1
C -3.5779012162255555 0.3722551981234959 -0.25455999792059564
O -2.186330560853836 0.45958037108718663 -0.6545543032079246
C -1.3142293856050218 -0.25037992354489413 0.09121238091743607
O -1.6635653413194376 -0.9504134717150634 1.0284926069768905
C 0.10750014555591403 -0.026375647876876598 -0.3429984166439704
C 0.9583017970060833 -1.2889126733950347 -0.17240959982081322
C 2.4072972371690273 -1.0192461787620206 -0.5795556808089073
C 3.0004771826723604 0.13907363196925596 0.22462568391568913
C 2.146580151281348 1.4003129251673372 0.08498101217868452
C 0.6943544583201786 1.1385097259492816 0.48563656387192716
H -3.7019915921714865 0.7474185911293102 0.7643873995571036
H -3.9256823749127943 -0.6617929305214969 -0.31881476753756455
H -4.12142088008935 0.9999427401970897 -0.959827352757307
H 0.0994770420442574 0.2747388038259813 -1.3971417871067051
H 0.924815548031778 -1.6001438464424516 0.8791365536478501
H 0.5351720557981877 -2.1054352982117512 -0.7687231065007671
H 3.004875572713614 -1.9267254617426908 -0.43741278869435646
H 2.4444250960795726 -0.7756539224139126 -1.6502732426075808
H 3.05083563070463 -0.14675825597276956 1.2843878109789435
H 4.026663004568104 0.3412235805011841 -0.10293977350912756
H 2.554905088557625 2.2085662991763404 0.7023884073907677
H 2.174483552908933 1.745451029819442 -0.9574506565590197
H 0.6445112494338165 0.8706841052466564 1.549542975753889
H 0.08780380493050598 2.039645188863684 0.3424448524898861
*
