! pbe def2-sv(p) def2/J RI DEFGRID1 loosescf d4 GCP(DFT/SV(P)) printgap
%output
    printlevel normal
end
* xyz 0 1
C 2.2946094129 -0.3693541517 -0.3886091499
C 1.0627486484 -0.2422079802 0.5084372611
H 1.3082982265 -0.6244687678 1.5075991701
C 0.520242188 1.1914219625 0.560191416
C -0.5195884373 1.1910616823 -0.5585292828
C -1.0607961136 -0.2432186517 -0.5080403494
H -1.3012437135 -0.626275845 -1.5082392866
O -0.0001692534 -1.052878372 0.0036424109
C -2.2967994623 -0.3705176792 0.3831314734
H 3.1331248391 0.158217625 0.0563914784
H 2.5535341371 -1.4186522787 -0.5019311591
H 2.0898968584 0.0439176833 -1.3726867005
H 0.0439776225 1.3806640201 1.5219884198
H 1.3069050431 1.9249490518 0.4056276552
H -1.3071851895 1.9234573008 -0.4032751719
H -0.0437887841 1.3818829069 -1.5202351297
H -2.0971376156 0.0443783162 1.3676539194
H -2.5547039104 -1.4200369538 0.4966283381
H -3.133951013 0.155343275 -0.0666018029
*
