! pbe def2-sv(p) def2/J RI DEFGRID1 loosescf d4 GCP(DFT/SV(P)) printgap
%output
    printlevel normal
end
* xyz 0 1
C -2.5540479945 -0.6975678932 -0.3167706597
C -1.1743384793 -0.3078026113 0.2258288295
H -1.2156987077 -0.2696356656 1.3260864746
C -0.719365943 1.0606773091 -0.3206490082
H -0.723919422 1.0103167223 -1.4164394174
C 0.7090190374 1.3334038052 0.1720758898
H 0.7112668594 1.4125209462 1.2671625741
C 1.6340287198 0.1662298083 -0.2207654295
H 1.6941133085 0.1038890696 -1.320577757
C 1.0461161542 -1.1565281674 0.309218169
H 1.0541275191 -1.1286115317 1.4107715317
O -0.269974672 -1.3226033891 -0.1762009695
O 1.7739243206 -2.2671299659 -0.0468595862
O 2.9151138089 0.3339619054 0.325627627
O 1.2305398589 2.5575157471 -0.2823253177
O -1.6080607241 2.0930880543 0.0032554872
O -3.1010138736 -1.7979660567 0.3592334539
H -2.4584757947 -0.9044142333 -1.3894090277
H -3.2437874847 0.1350504586 -0.1700407182
H 1.7488781288 -2.3860506332 -1.0099548269
H 3.1760510865 1.2627244786 0.2096302181
H 1.0175746205 2.6862067261 -1.2179895555
H -1.5740214213 2.2805469374 0.9526297565
H -2.5010096216 -2.5510224356 0.2576512537
*
