! pbe def2-sv(p) def2/J RI DEFGRID1 loosescf d4 GCP(DFT/SV(P)) printgap
%output
    printlevel normal
end
* xyz 0 1
C -1.9552645073 -1.2819772118 -0.3354583174
C -1.2619148706 -0.4263540127 0.7413152847
H -1.9193350006 -0.3770952326 1.6158425197
C -0.9835004577 1.0129662856 0.2468968198
H -1.3439589039 1.1169688505 -0.784396597
C 0.5258437109 1.2758225051 0.2355263561
H 0.8707255259 1.3721862993 1.2769744069
C 1.2443521501 0.0928869204 -0.4182631204
H 0.8107202995 -0.0886556161 -1.4118323062
C 1.0293102523 -1.1549362035 0.4466518499
H 1.8778954025 -1.2277284635 1.143783749
O -0.0990233033 -1.0466827313 1.2821419331
O 0.9627605653 -2.2717476121 -0.3777972944
O 2.6261754845 0.3182414069 -0.5139480622
O 0.8476078583 2.4321735769 -0.495482138
O -1.5603273119 1.9962086342 1.0772431303
O -1.433149154 -1.004893897 -1.6161784777
H -3.0291833671 -1.05117823 -0.3174149036
H -1.811405671 -2.3336097305 -0.0695892326
H 1.0538617218 -3.0807168947 0.1486702256
H 2.7533413419 1.1863291082 -0.9295419924
H 0.3706674224 3.1819476472 -0.1106963312
H -2.5221883885 1.995639293 0.9758931875
H -1.7489042669 -1.6744798778 -2.2383194751
*
