! pbe def2-sv(p) def2/J RI DEFGRID1 loosescf d4 GCP(DFT/SV(P)) printgap
%output
    printlevel normal
end
* xyz 0 1
C -2.4537644107 -0.5579898597 -0.2197410131
C -1.0173029123 -0.2358781462 0.1835964851
H -0.9342977271 -0.3678059814 1.2723989375
C -0.6269722756 1.2116377109 -0.1839739578
H -1.1307918924 1.4931143799 -1.1153009305
C 0.9029223479 1.2997453356 -0.4047757831
H 1.2253238946 2.30585466 -0.098189444
C 1.608184593 0.269287848 0.4865275853
H 2.6890574922 0.3290550154 0.3054254791
C 1.1571754698 -1.1525599124 0.0538909672
H 1.2045243415 -1.8292277388 0.9247980919
O -0.1538010876 -1.1514645128 -0.4680827674
O 2.0024171267 -1.6856818139 -0.899180406
O 1.2923814429 0.5684231489 1.8230053841
O 1.2877117904 1.0276896113 -1.7274069837
O -1.0666103406 2.1322875808 0.777040167
O -2.9048235045 -1.6520657915 0.5447440967
H -2.4630379095 -0.7922831504 -1.2899658078
H -3.0690185992 0.3297451681 -0.0232467111
H 1.9089016823 -1.1624072452 -1.7142225427
H 1.8953379426 0.1036788136 2.419965906
H 0.9396339766 1.7096669928 -2.3192345709
H -0.624450394 1.9392147686 1.6186399056
H -3.7786159727 -1.9230371143 0.2300201377
*
