! pbe def2-sv(p) def2/J RI DEFGRID1 loosescf d4 GCP(DFT/SV(P)) printgap
%output
    printlevel normal
end
* xyz 0 1
C -1.8667861727 -0.5724668902 -0.8554366739
C -1.1960390973 -0.1193880582 0.4463746619
H -1.9567074479 -0.130150522 1.2355147131
C -0.6160110069 1.3006537597 0.3467869953
H -1.3533340062 1.954380147 -0.1290387376
C 0.6690264605 1.3196174233 -0.5029930739
H 1.1235827291 2.3155236896 -0.3651458969
C 1.6668995562 0.2675715288 0.0261219499
H 2.451940524 0.0992398593 -0.7247493426
C 1.0055383002 -1.1023648179 0.2604769051
H 1.6492044754 -1.6545275992 0.9662687987
O -0.2203142411 -1.0377276602 0.9335978107
O 0.9350302831 -1.7637721778 -0.9647622252
O 2.2184457628 0.665148891 1.2589293235
O 0.3214913379 1.1235532395 -1.8470040534
O -0.3808102594 1.8464351193 1.6194791115
O -2.6186120605 -1.7374688637 -0.5859583584
H -1.1084806814 -0.7578138372 -1.6212261613
H -2.5204917956 0.2408128609 -1.1932315898
H 0.5618068568 -2.648004948 -0.8300391236
H 2.8114735609 1.4200404404 1.1285986465
H 1.1085666319 1.1979516233 -2.4064621426
H 0.2707930937 1.2911285571 2.0800860184
H -3.0694735119 -2.0137119993 -1.3960181651
*
