! r2scan-3c def2/J RI DEFGRID2 scfconv6 printgap
%output
    printlevel normal
end
%cpcm
    smd true
    smdsolvent "water"
end
* xyz 0 1
C -2.0050867292 -0.8654467932 -0.629877913
C -1.4226574129 -0.0808067602 0.545796496
C -0.0196655628 0.3905128773 0.2591612754
O 0.3416615118 1.548784185 0.3136194688
O 0.7820209493 -0.6176406917 -0.0548267302
C 2.1528660125 -0.3504401462 -0.3631001759
H -2.0548815309 -0.2390670623 -1.5171582861
H -1.3872702092 -1.7318005956 -0.8476473639
H -3.0084046432 -1.1997776114 -0.3841857718
H -1.3822958437 -0.7227502898 1.427244757
H -2.030716728 0.7952768122 0.7704195976
H 2.3179004069 -0.5963925767 -1.410845471
H 2.7590505979 -0.9890681625 0.2757814622
H 2.3759323052 0.7013580575 -0.1810474968
*
