! wb97x-v def2-tzvp def2/J RIJCOSX DEFGRID2 scfconv7 GCP(DFT/TZ) printgap
%output
    printlevel normal
end
* xyz 0 1
C -3.440614731733986 0.577055396955047 -0.09877033617938692
C -1.9470740935522783 0.468124460757751 -0.02340639634062523
C -1.1222120280314587 1.3541696889731536 -0.5929062938761249
C 0.37331525699384915 1.2598432114867906 -0.5869819825546272
C 0.8728320351710663 -0.1319751456114087 -0.15795412691182123
H 0.6346625958374543 -0.8243456321868394 -0.9804586915385204
C 0.08324894571285894 -0.5713470887879698 1.0705677519894763
C -1.4038011249165063 -0.7001098885178242 0.7579435218452103
H -1.9620644575016455 -0.7679650994872519 1.7040169296089045
O -1.682914295837194 -1.9018461618255191 -0.014223710979630969
C 2.3759234060435106 -0.14291333120499156 0.006276318463754384
C 2.9881369555099138 -0.3648624020696892 1.1742904853616323
C 3.162581143385829 0.12940942158190397 -1.2456427911143895
H -3.8786157652503643 0.6384521875532989 0.9054361668521442
H -3.876218233146805 -0.30833966836506715 -0.5770276863592868
H -3.7489474106711924 1.4586838158708653 -0.667320661921384
H -1.5506862449969367 2.213092029398008 -1.1092079449108443
H 0.7465527624845305 1.5100600589200948 -1.5865663721436647
H 0.7911175273218727 2.0221347190155345 0.0896467465837978
H 0.44438255375968255 -1.5327413997298935 1.4544380141777886
H 0.2056249813981532 0.16697758246777317 1.874539888481286
H -1.4897603094507814 -2.653558439745207 0.5613125049283717
H 4.073145146033058 -0.3589511121674799 1.2407574928627534
H 2.4412939359378054 -0.5552022424425247 2.0920830242846726
H 3.016681140590163 1.1607113216333154 -1.5885739584962113
H 4.23264763500516 -0.024830335304848457 -1.0856915854115896
H 2.8298795604402787 -0.5221203195972689 -2.0627509652926426
*
