! pbe def2-sv(p) def2/J RI DEFGRID1 loosescf d4 GCP(DFT/SV(P)) printgap
%output
    printlevel normal
end
* xyz 0 1
C -1.93087633 -0.9815707035 -0.7592725879
C -1.2675259696 -0.1716349123 0.3620124643
H -2.0223445532 0.0395200917 1.1266909718
C -0.7317616025 1.1736346351 -0.166887542
H -0.7872915038 1.1955819351 -1.2676245038
C 0.7443070381 1.3359942168 0.2091200081
H 0.8389811713 1.4002077506 1.3038122441
C 1.5064709977 0.1007975243 -0.2786472277
H 1.3413829666 -0.0142488298 -1.3596389664
C 0.9442730146 -1.1447539478 0.4368342475
H 1.6173737166 -1.404021675 1.2703828703
O -0.2831476024 -0.9078480783 1.074639393
O 0.8840770349 -2.1828363961 -0.4938320859
O 2.868927537 0.3026375956 -0.0030856385
O 1.2160608157 2.5121056986 -0.3959889635
O -1.5242909994 2.2024616125 0.3649208153
O -2.5538475365 -2.1131872268 -0.197457241
H -1.1709442762 -1.2800990497 -1.4926853233
H -2.6678216413 -0.3274596421 -1.2409653875
H 0.5445986692 -2.9847349144 -0.0671589482
H 3.3980151234 -0.3928097205 -0.4184809124
H 2.1796531825 2.5401921257 -0.293522745
H -1.1199022127 3.0525314806 0.1307767791
H -3.0393510644 -2.5851339782 -0.8890045256
*
