! wb97x-v def2-tzvp def2/J RIJCOSX DEFGRID2 scfconv7 GCP(DFT/TZ) printgap
%output
    printlevel normal
end
* xyz 0 1
C -2.5899359530815103 -0.6130412145479771 -0.2890030771458834
C -1.21427149034971 -0.2675405671118096 0.2439880053612348
H -1.2382822642839315 -0.22584916544306116 1.3450700545061889
C -0.6925988586949227 1.0587650804725937 -0.30558218633748097
H -0.7049467518465807 1.0167724746268632 -1.4077846493119188
C 0.7429987500769003 1.292703577588818 0.16419797139097897
H 0.7376821175574467 1.4296881195129525 1.2533861863644047
C 1.6215108902289301 0.09652169366789574 -0.17573972462800205
H 1.7048001413333558 -0.0006480530935578313 -1.27164908540846
C 0.9807341740480157 -1.1833459941364683 0.36893361526011703
H 0.9268829654165928 -1.1506496223781106 1.4672192952658925
O -0.333465026441046 -1.3242073678359823 -0.17843832242183555
O 1.7169324465495548 -2.330535520632417 0.03573806116170305
O 2.904704879174078 0.3099305307438003 0.412878819928651
O 1.2582858675367052 2.516506711717722 -0.37259861564030283
O -1.5498553180070116 2.102019587359616 0.1629039307191501
O -3.102749316370913 -1.8184727830785223 0.2903096358182634
H -2.5435416042008656 -0.6948529371665625 -1.384725143877859
H -3.2909900185912506 0.18277351697170463 -0.027621838591787445
H 1.8936808741373619 -2.3117885409116825 -0.9174652279417995
H 3.480068346699767 -0.41004604414050705 0.1207900211846883
H 1.2915425464157275 2.4238819330904415 -1.3363678372797185
H -1.1322469731283658 2.9389312167108312 -0.08612843208914625
H -2.5006494078205286 -2.53252447038631 0.04226107925346679
*
