! pbe def2-sv(p) def2/J RI DEFGRID1 loosescf d4 GCP(DFT/SV(P)) printgap
%output
    printlevel normal
end
* xyz 0 1
C -2.0541173243 -1.3909975406 -0.1084581038
C -1.003789455 -0.5157982734 0.6015540268
H -1.4193386543 -0.1508951345 1.5504077256
C -0.647974348 0.7059373561 -0.258193244
H -0.5409533322 0.4045412552 -1.3115077894
C 0.6993721472 1.2531957993 0.2198236574
H 0.6603560214 1.3918494677 1.3124260306
C 1.7772806181 0.21514162 -0.1128529219
H 2.0236617706 0.3166092367 -1.1802172216
C 1.2435515837 -1.2161505863 0.1022471769
H 2.0248990101 -1.778920098 0.6304537271
O 0.1428721372 -1.2765859592 0.9727427794
O 0.9537116768 -1.7684211122 -1.1438099894
O 2.9260291964 0.3681833156 0.6780940547
O 1.0354746659 2.4625016575 -0.4104761269
O -1.612238912 1.7215986405 -0.1357947909
O -3.270539906 -0.698145766 -0.2644945366
H -2.1847743089 -2.3203405871 0.4544339141
H -1.7038082547 -1.6326611033 -1.1149812326
H 0.8819975531 -2.7329158703 -1.0749154466
H 3.2738260673 1.263660583 0.5487585922
H 0.2475584018 3.0283680863 -0.408433249
H -2.4623117537 1.3729000114 -0.4507212318
H -3.7546523172 -0.7011501618 0.5733199812
*
