! r2scan-3c def2/J RI DEFGRID2 scfconv6 printgap
%output
    printlevel normal
end
* xyz 0 1
C -2.2305599905 0.4185900199 -5.3461e-06
C -1.1992006781 -0.6858334772 9.5382e-06
Br 0.6416580219 0.0470964415 -9.417e-07
H -2.128108375 1.0444921229 -0.8833308668
H -3.2223171151 -0.0276771617 -0.00033407
H -2.1286036723 1.0445998723 0.8833949435
H -1.2591368931 -1.3053982626 -0.8924174483
H -1.2592370554 -1.3050381654 0.8927121395
*
