! r2scan-3c def2/J RI DEFGRID2 scfconv6 printgap
%output
    printlevel normal
end
* xyz 0 1
C 3.7425321632 0.2684793486 0.0859946887
C 2.288242266 0.1574671429 -0.3630985655
H 2.2667883673 -0.1021393476 -1.4274629216
C 1.5401249885 1.471357416 -0.1635707433
C 0.0881135454 1.3465459646 -0.6138043458
C -0.6813102609 0.2512919933 0.1380236981
H -0.7108531603 0.5121887793 1.2027837597
C 0.0937186216 -1.0762559319 -0.0167775814
H 0.0573629527 -1.3791480572 -1.0705776399
C 1.5554678096 -0.9264416845 0.4194245309
O -0.4859595783 -2.1657857355 0.6794650771
C -2.1363160429 0.1346518628 -0.3764973302
C -3.0134155987 -0.6818937669 0.574924137
C -2.8025834452 1.4980991702 -0.5821667026
H 3.7953998868 0.5261108519 1.1415033007
H 4.2618611484 -0.6748626921 -0.0643441876
H 4.2571386755 1.0397236155 -0.4818141748
H 1.5733939739 1.7471857706 0.8929994537
H 2.0253804816 2.2674588936 -0.7315403263
H -0.4000898582 2.3068027662 -0.4550748916
H 0.0612989371 1.1230415247 -1.683149093
H 1.5805955903 -0.6762000405 1.4840146423
H 2.0501787545 -1.8917463086 0.289190517
H -0.3771256745 -2.0114959857 1.6284940307
H -2.1070543224 -0.3813022228 -1.3434704727
H -4.0275960401 -0.7409161987 0.185746129
H -3.0513821587 -0.2074535144 1.553510618
H -2.6335075866 -1.692112327 0.6841485613
H -2.3595166763 2.0458218669 -1.4082423196
H -2.7303363931 2.0985449693 0.322044943
H -3.8566191051 1.3536961891 -0.8086318953
*
