! wb97x-v def2-tzvp def2/J RIJCOSX DEFGRID2 scfconv7 GCP(DFT/TZ) printgap
%output
    printlevel normal
end
* xyz 0 1
C -2.6603576732744134 -0.6598991077421441 -0.7503507879800615
C -1.8758871263356725 -0.4637557099879696 0.5540211170921995
C -0.39672779705732586 -0.31120330930427936 0.3053191093521059
C 0.4133684397383977 -1.45006075669653 0.2676081107972148
C 1.7764027065905028 -1.3659834648805653 -0.0039893352061127745
C 2.350700909820148 -0.12086166532537412 -0.2418098689774544
C 1.5545042527168027 1.0210624914548285 -0.20600694812966308
C 0.18355306259912357 0.9494900225542666 0.06218655150084738
C -0.6372579186608088 2.2093283855859522 0.10282346343503322
H -3.7325033659937596 -0.7523980743232044 -0.5487469690936342
H -2.3300322706793852 -1.568757203700869 -1.2639946845129728
H -2.5144352525561398 0.18421864232770743 -1.4320827384402184
H -2.041626512527399 -1.331486851702004 1.201895638805564
H -2.2643633084771797 0.411609599217534 1.084082849784736
H -0.03813456261282884 -2.421014296857372 0.4577035786170763
H 2.3840895109979687 -2.2656003902323065 -0.02484325673773286
H 3.4125855145202655 -0.03606116944626576 -0.45208412180661
H 2.0034222274034907 1.9940644952288107 -0.3886382344477936
H -1.4909594450280974 2.1601106326987147 -0.5810655436905292
H -1.041601087576913 2.3898239235276866 1.1056091300671949
H -0.028863872352569243 3.0737143946295955 -0.17433049844308343
*
