! pbe def2-sv(p) def2/J RI DEFGRID1 loosescf d4 GCP(DFT/SV(P)) printgap
%output
    printlevel normal
end
* xyz 0 1
C -2.2882477601 -0.8787227769 0.7933045099
C -0.8326940222 -0.3970345709 0.7385461262
H -0.5269462108 -0.1017918547 1.7512262136
C -0.6378887161 0.8026376403 -0.2043189221
H -0.8229700745 0.4670540862 -1.2344919039
C 0.8191139922 1.2962455735 -0.1029271811
H 0.8431303082 2.1004644919 0.639752653
C 1.7613767872 0.1707032421 0.3764946574
H 2.7458938202 0.3625951105 -0.070956192
C 1.2520295617 -1.1747528428 -0.1678801251
H 1.8983879507 -1.9975575952 0.1763976733
O -0.0334806444 -1.497651936 0.3013043852
O 1.2832757835 -1.0776960885 -1.5613086202
O 1.8282130246 0.1835674457 1.7778007513
O 1.2735634431 1.8588373482 -1.3035485723
O -1.4847279545 1.8750372581 0.1249191017
O -2.864603649 -1.0580963697 -0.4761867127
H -2.8870966076 -0.1231400516 1.3035868848
H -2.3161805982 -1.8072114364 1.3736484503
H 1.0991086761 -1.9395467421 -1.9648964228
H 2.5754833815 -0.3508204667 2.0841254196
H 1.2969710662 1.1648310923 -1.9824136281
H -2.37621404 1.6890335479 -0.2029639809
H -2.4432767792 -1.8160454611 -0.9034365692
*
