! pbe def2-sv(p) def2/J RI DEFGRID1 loosescf d4 GCP(DFT/SV(P)) printgap
%output
    printlevel normal
end
* xyz 0 1
C -2.5735176091 -0.5413956182 1.0740780589
C -1.7501947485 0.0424685802 -0.0399594179
O -2.2421341966 0.3122052453 -1.1189531322
C -0.278152025 0.2347366398 0.260044463
C 0.4202025968 1.0856166706 -0.810170283
C 1.8967618789 0.7121682145 -0.9700322963
C 2.4854076162 0.3164710279 0.3796097085
C 1.8380785472 -0.980216362 0.8820225516
C 0.4038613142 -1.1384216824 0.3633791498
H -2.0978776921 -0.4182434882 2.0404276056
H -3.5596664418 -0.0838317908 1.0727752766
H -2.7111628923 -1.6030205942 0.874215949
H -0.2027889862 0.7200749775 1.2374923064
H -0.1033726603 0.9531901275 -1.7600014578
H 0.3318194545 2.1387956486 -0.5364018618
H 2.0043842374 -0.1212926469 -1.6659175328
H 2.4416121027 1.5597612113 -1.3876431335
H 3.5648453945 0.1844262946 0.2971232766
H 2.3071305775 1.1264779742 1.0892122018
H 2.4233840627 -1.839638256 0.5521393041
H 1.8361781555 -0.9829650866 1.9729242519
H 0.4051344381 -1.5947752593 -0.6276785688
H -0.1542897617 -1.7943633658 1.0306238169
*
