! r2scan-3c def2/J RI DEFGRID2 scfconv6 printgap
%output
    printlevel normal
end
* xyz 0 1
C -1.7915868424 -0.7324029667 -0.5772771655
C -0.702387459 0.319343058 -0.3644257491
C -1.004374222 1.1248811952 0.8979104014
C 0.7023765266 -0.3193634134 -0.36441508
C 1.7915975907 0.7323500916 -0.5773115352
C 1.0043702744 -1.124816445 0.8979724806
H -1.8329389875 -1.4240267038 0.2604971276
H -2.7636303797 -0.2527269535 -0.666653925
H -1.6059888732 -1.301579358 -1.4854692296
H -0.7358869842 1.0066126998 -1.2188380387
H -1.0835495456 0.4719345551 1.7630115037
H -0.2311443555 1.864487227 1.0865588643
H -1.9509510566 1.6483813993 0.7824679969
H 0.7358904421 -1.006684025 -1.2187951131
H 2.7636780167 0.2527002182 -0.666322223
H 1.6061632932 1.3012347253 -1.4857091167
H 1.8327701459 1.4242484934 0.2602503523
H 1.951377168 -1.6476165884 0.7828731719
H 0.2315268568 -1.8649389077 1.086239661
H 1.0827334971 -0.4719257233 1.7631698379
*
