! r2scan-3c def2/J RI DEFGRID2 scfconv6 printgap
%output
    printlevel normal
end
%cpcm
    smd true
    smdsolvent "water"
end
* xyz 0 1
C -3.430589133 -1.1195620326 0.5799296913
C -2.1971640761 -1.2372430188 -0.3161994051
C -1.2228172536 -0.0961302438 -0.1580925534
C -1.6992471393 1.1895259726 -0.0715196612
C -0.8490091825 2.2898185927 0.0936834511
C 0.5005830865 2.1052683278 0.1734220641
C 1.0465186636 0.8102704611 0.065432593
C 0.1853091509 -0.3095993176 -0.1140490347
C 0.7918584079 -1.578922296 -0.2522670757
C 2.1489772747 -1.73518046 -0.1978231903
C 2.988143408 -0.6295920845 -0.0018844978
C 2.4430587587 0.615597587 0.1239012559
H -4.0121825616 -2.0366445715 0.5232011979
H -4.0735249617 -0.2975665095 0.2789299557
H -3.1310815741 -0.9633872597 1.6137337485
H -2.515547901 -1.2833186185 -1.3621029775
H -1.7085558646 -2.1809289692 -0.0814526075
H -2.7608242277 1.3725988141 -0.1312669347
H -1.2736722227 3.2805541092 0.1614872937
H 1.1697293382 2.9422587255 0.3109326463
H 0.1809018241 -2.4522993017 -0.4158319072
H 2.583540783 -2.7177833863 -0.308105343
H 4.057764734 -0.7700553243 0.0429507057
H 3.0746566934 1.4808508711 0.2668460616
*
