  15
        -26.15715491
 C         -1.0119620237       -1.8042719179       -0.0000064171
 C          0.3582999876       -1.6170664772        0.0000377067
 C          0.8747968825       -0.3205542038       -0.0000164728
 C          0.0115541095        0.7776167856        0.0000133149
 C         -1.3614778084        0.5836574126        0.0000626398
 C         -1.8682946383       -0.7185564272       -0.0000182731
 O         -2.2446964874        1.6067384052       -0.0000172204
 C          2.3154354389       -0.1025997785        0.0000105739
 O          2.8670651091        0.9802685981       -0.0000216647
 H         -1.4207706817       -2.8021054877       -0.0001459111
 H          1.0299199986       -2.4609182610       -0.0000732326
 H          0.4434321092        1.7682302675        0.0000419352
 H         -2.9384712562       -0.8500887932       -0.0001218614
 H         -1.7884828690        2.4623103227       -0.0000696370
 H          2.9178876462       -1.0292096878       -0.0000039518
  15
        -26.15659395
 C         -0.7616464782       -1.7226082745       -0.0000008152
 C          0.5525045932       -1.3007734354       -0.0000367279
 C          0.8395536763        0.0676084267       -0.0000689348
 C         -0.1974177436        0.9980912941       -0.0000987738
 C         -1.5193896136        0.5676723858       -0.0000671377
 C         -1.7947997523       -0.7993310694        0.0000705310
 O         -2.4933283007        1.5057033797        0.0000472875
 C          2.2227529130        0.5273100826        0.0000364915
 O          3.2057815938       -0.1863030874        0.0000279026
 H         -0.9904942686       -2.7765568973        0.0001472349
 H          1.3730234688       -2.0012237724        0.0005026992
 H          0.0082291762        2.0570100955        0.0000339831
 H         -2.8191820588       -1.1411162725        0.0001422074
 H         -3.3729404955        1.0966362985        0.0002152185
 H          2.3384117274        1.6268810037       -0.0002643321
  15
        -26.15639078
 C         -0.9954695613       -1.8116285645        0.0000201839
 C          0.3711614678       -1.6128776413       -0.0000197218
 C          0.8768102845       -0.3102453084        0.0000045999
 C          0.0046656134        0.7771441146       -0.0000525208
 C         -1.3696592211        0.5719273002       -0.0000573712
 C         -1.8640183837       -0.7322439549        0.0000285233
 O         -2.1773822799        1.6559174038        0.0000304647
 C          2.3168699796       -0.0839340522       -0.0000159722
 O          2.8655695592        0.9995771675        0.0000205552
 H         -1.3953613481       -2.8133133161        0.0001806449
 H          1.0504218088       -2.4506003291       -0.0000441287
 H          0.4012964264        1.7805314144       -0.0000631773
 H         -2.9304691030       -0.9023585405       -0.0000293024
 H         -3.1124232387        1.3966612864        0.0001767424
 H          2.9230346827       -1.0088348792        0.0000689691
