! r2scan-3c def2/J RI DEFGRID2 scfconv6 printgap
%output
    printlevel normal
end
* xyz 0 1
C 1.9861527261 0.0249395393 -0.6500609588
C 1.2756937267 -0.3191418424 0.6542844835
C -0.2258446388 -0.5412461549 0.5087520303
H -0.656221691 -0.7688342675 1.4869526615
C -0.6092733944 -1.6095313125 -0.496754388
Cl -1.0175445453 1.0217379456 0.0286157556
H 1.5110215 0.8797112711 -1.1256166963
H 1.9680167405 -0.813892757 -1.3395385119
H 3.0232462346 0.2781382524 -0.4478501673
H 1.4374241835 0.4849053753 1.3749175889
H 1.7010181082 -1.233708302 1.0722859997
H -0.1209888851 -2.54263945 -0.2273025225
H -1.6852623387 -1.7625950057 -0.4941946925
H -0.3046860358 -1.3246648942 -1.4994669905
*
