! pbe def2-sv(p) def2/J RI DEFGRID1 loosescf d4 GCP(DFT/SV(P)) printgap
%output
    printlevel normal
end
* xyz 0 1
C -2.5577301536 -0.6826641914 -0.3513016183
C -1.1735031452 -0.3176814964 0.1791272842
H -1.2269845904 -0.2598864347 1.2770768027
C -0.6912515578 1.0314283083 -0.370128139
H -0.6591229464 0.9625574449 -1.4711422374
C 0.7282549334 1.3234501297 0.1518113476
H 0.6909883998 1.4471278468 1.2406253443
C 1.6561632434 0.1512208112 -0.1757920892
H 1.7661605996 0.0626270784 -1.269163144
C 1.0194945384 -1.1603528565 0.3246582141
H 0.9638856114 -1.1235970267 1.4338347316
O -0.2716016512 -1.3380573517 -0.2019224304
O 1.815160233 -2.2052473655 -0.103375124
O 2.9005263001 0.3691255659 0.432050156
O 1.1859915961 2.5557149021 -0.3426908568
O -1.5845672474 2.0395473377 0.0210388474
O -3.1003674231 -1.6951049401 0.4632816463
H -2.4473548903 -1.0272712949 -1.3859462899
H -3.1743920834 0.2227305684 -0.3189832009
H 1.3377716645 -3.042572621 0.0049274433
H 3.4623414474 -0.4065729421 0.2824134653
H 1.5159134653 2.4521151806 -1.2471531671
H -1.1248873089 2.893107319 -0.0466834825
H -3.9693177242 -1.9466342465 0.1193058425
*
