! pbe def2-sv(p) def2/J RI DEFGRID1 loosescf d4 GCP(DFT/SV(P)) printgap
%output
    printlevel normal
end
* xyz 0 1
C -2.5639133031 -0.8910003298 0.2511256388
C -1.1384643662 -0.4484650862 0.6124395879
H -1.0470162116 -0.3916750174 1.70732268
C -0.8349976314 0.9408780823 0.0326347315
H -1.0829069802 0.9306281924 -1.041124612
C 0.6560476493 1.2850333636 0.2113136604
H 0.8507010395 1.4103107032 1.2844278642
C 1.5255360776 0.1443172844 -0.3375255634
H 1.3360122393 0.0264747325 -1.4115709743
C 1.1069695745 -1.1635958324 0.3753662627
H 1.249825109 -1.0530232757 1.4637505041
O -0.2538098462 -1.4265639366 0.0973036844
O 1.8575602284 -2.2552714675 0.0065911578
O 2.898660338 0.3987394986 -0.23507207
O 0.9572950226 2.5347579125 -0.3589302514
O -1.6434137408 1.8704337564 0.7091994054
O -2.7346352379 -1.0554759319 -1.1314482239
H -3.256249217 -0.1083800881 0.5643323024
H -2.7908134909 -1.8205773286 0.7851257402
H 1.7487702586 -2.4373706318 -0.9399419254
H 3.1544976979 0.5169890481 0.6905441662
H 1.0347076998 2.4531507226 -1.3204928205
H -1.3414130773 2.7630434545 0.4774743235
H -2.1442966309 -1.7641473111 -1.4261309716
*
