! pbe def2-sv(p) def2/J RI DEFGRID1 loosescf d4 GCP(DFT/SV(P)) printgap
%output
    printlevel normal
end
* xyz 0 1
C -2.0395578317 -1.376008397 -0.1631521786
C -1.0232317904 -0.504401061 0.5991443369
H -1.4726475596 -0.1655217597 1.5418243669
C -0.6678500537 0.7528163018 -0.2174093709
H -0.6069927325 0.5081212422 -1.288030447
C 0.7108426183 1.2525942981 0.2198484682
H 0.711921575 1.3928642187 1.3103006467
C 1.7544113858 0.1843337637 -0.1435553263
H 1.9338993562 0.2525727435 -1.2256953606
C 1.2231482463 -1.2406570169 0.140788377
H 1.984866223 -1.7930966861 0.7110427465
O 0.112550986 -1.263065346 0.9987165027
O 0.9614327269 -1.8503791159 -1.0858681477
O 2.9199544528 0.4753538365 0.5855734721
O 0.9916534927 2.4602866829 -0.4363862618
O -1.6231557879 1.7581343884 0.0004373465
O -3.2561858387 -0.6964592819 -0.3583345626
H -2.1845924562 -2.314186169 0.3832288216
H -1.6506095627 -1.6006683553 -1.1593502961
H 0.8019786409 -2.7990164392 -0.9626532383
H 3.6728274426 -0.0171970268 0.2284376566
H 1.8333307424 2.8044637588 -0.1030313433
H -2.4578215629 1.4723971776 -0.405258462
H -3.7494352752 -0.6728672635 0.4739422388
*
