! pbe def2-sv(p) def2/J RI DEFGRID1 loosescf d4 GCP(DFT/SV(P)) printgap
%output
    printlevel normal
end
* xyz 0 1
C -2.4244183653 -1.0808788633 -0.3492495602
C -1.0764140141 -0.5942055909 0.2014865278
H -1.1310659407 -0.5815258348 1.3014375846
C -0.7418863502 0.8239478593 -0.2865856318
H -0.7225886669 0.8258677639 -1.3884071794
C 0.6521526292 1.2293005813 0.2085442663
H 0.6415407668 1.2902447336 1.3084967926
C 1.673774456 0.1675899697 -0.2064835646
H 1.7441799576 0.1522160317 -1.3057298047
C 1.1967678795 -1.2173391489 0.2804116259
H 1.1908180908 -1.2163066185 1.3848066441
O -0.0838039937 -1.5064641442 -0.2235026572
O 2.0635203138 -2.2189805882 -0.118397683
O 2.914420903 0.5039321058 0.3614979313
O 0.9468250477 2.4895751645 -0.3419303351
O -1.7294508672 1.7039105851 0.1828326285
O -3.5140319201 -0.4958422562 0.3084865836
H -2.4975316412 -2.1579467297 -0.1845292099
H -2.4632013472 -0.8864743454 -1.4292714477
H 1.7955625872 -2.5390142876 -0.9943944176
H 3.5221964404 -0.2442885757 0.2600767877
H 1.858242293 2.7226748248 -0.1125481601
H -1.447893526 2.6109660917 -0.0134331642
H -3.3942254872 0.4686723355 0.3008937118
*
