  8
        -19.61199994
 C         -1.0006583306       -1.6005615165       -0.0000042272
 S         -0.4689177888        0.0897081979        0.0000029463
 O         -0.8000756381        0.7699174041        1.2244684828
 O         -0.8001957463        0.7699562620       -1.2244124005
 Cl         1.5791627937       -0.0718702111       -0.0000279351
 H         -0.6078511530       -2.0575751624        0.8975909865
 H         -2.0834666730       -1.5821242917        0.0017315966
 H         -0.6106400995       -2.0566719180       -0.8992735742
  8
        -19.61068025
 C         -1.0185495211       -1.6078851924       -0.0000340113
 S         -0.4683664801        0.0838785634        0.0005472324
 O         -0.7983208543        0.7665331597        1.2242612783
 O         -0.7970890716        0.7661665631       -1.2237565538
 Cl         1.5839107448       -0.0600026335       -0.0007512549
 H         -0.1432899318       -2.2411627380        0.0541783811
 H         -1.6475598046       -1.7280854610        0.8716845001
 H         -1.5596234310       -1.7579513050       -0.9244535613
