! pbe def2-sv(p) def2/J RI DEFGRID1 loosescf d4 GCP(DFT/SV(P)) printgap
%output
    printlevel normal
end
* xyz 0 1
C -3.9800467821 -0.4753103676 -0.001460451
C -2.529375084 -0.1017656305 -7.98138e-05
C -2.1687627664 1.2617785331 0.0002588379
C -0.859046068 1.6461316938 0.0007157992
C 0.1757041473 0.6868880215 0.000667115
C 1.538301713 1.04790555 0.0002657421
C 2.5293695209 0.1017612411 -0.0002089067
C 2.1687573287 -1.2617824939 0.0002387148
C 0.8590389898 -1.6461271738 0.0007164449
C -0.1757002723 -0.6868695024 0.000669965
C -1.5382974451 -1.0478963199 0.0003411493
C 3.9800514662 0.4752860431 -0.0013926807
H -4.471764288 -0.070759213 -0.8849731784
H -4.1036998774 -1.5548503044 0.0042294793
H -4.4764368531 -0.0606773459 0.8746736766
H -2.9529466176 2.0053828064 0.0002581136
H -0.5950748882 2.6942648509 0.0009915284
H 1.7908005499 2.09950953 8.23226e-05
H 2.9529462042 -2.0053821798 0.0001402163
H 0.5950402391 -2.6942524939 0.0009686399
H -1.7907688044 -2.0995083783 0.0001651207
H 4.4749410007 0.065707812 0.8779595605
H 4.4733094415 0.065743064 -0.8816922363
H 4.1037164803 1.5548266863 -0.0015253815
*
