! wb97x-v def2-tzvp def2/J RIJCOSX DEFGRID2 scfconv7 GCP(DFT/TZ) printgap
%output
    printlevel normal
end
* xyz 0 1
N 0.7378778020418799 1.792372415436338e-05 -0.10890660856581505
N -0.737872616164372 1.7745729340475465e-05 0.10889339352338982
H 1.0691364563693213 0.7950318377006415 0.4353702938272577
H 1.0691381762559422 -0.7949868688009553 0.43537955782588916
H -1.0691248867958283 -0.7950360500562748 -0.43532803823425714
H -1.0691405686099764 0.7949835116261221 -0.43544771424122625
*
