! wb97x-v def2-tzvp def2/J RIJCOSX DEFGRID2 scfconv7 GCP(DFT/TZ) printgap
%output
    printlevel normal
end
%cpcm
    smd true
    smdsolvent "water"
end
* xyz 0 1
C -2.419915140868937 -1.0232354625462534 0.7939627534996593
C -1.732140244852723 0.01736411334037636 -0.04862422954705061
C -2.4679731484021645 0.8787640616403168 -0.769403437386095
C -0.24734637869892276 0.03783624792872962 -0.03642697062974282
C 0.4702111946062735 -0.8701126796084634 0.7595887362568948
C 1.8630947670359073 -0.8669806936003872 0.7854465280504181
C 2.5787398475809717 0.04399782050377621 0.01660172334285703
C 1.8834354207849935 0.9531649580240121 -0.7814842416034781
C 0.4957130492838049 0.9496723279684898 -0.8085170506436208
H -2.1644395588823904 -0.9109570916043024 1.8539552518752405
H -3.5036707174989186 -0.9395799685336645 0.6923582007850735
H -2.123022593072867 -2.036413370569464 0.49973985190225645
H -2.035852906944698 1.6539760463908089 -1.392652077855554
H -3.5520257891104525 0.8231132491365042 -0.7460867962003015
H -0.056853148068046644 -1.5929173721999783 1.371170624878454
H 2.387154915911089 -1.5829356688533307 1.4112935781832514
H 3.663985876963316 0.04786914997276876 0.035505176306532105
H 2.4273903798047205 1.6703848280568914 -1.3886893349421991
H -0.009831238643832044 1.668413528200227 -1.443681197817304
*
