! pbe def2-sv(p) def2/J RI DEFGRID1 loosescf d4 GCP(DFT/SV(P)) printgap
%output
    printlevel normal
end
* xyz 0 1
C -0.9208759196 1.3817440402 -0.4485578365
C -0.4735496958 9.614e-06 -2.46762e-05
C -0.9206127752 -1.0794374197 -0.972321464
C -0.9207211611 -0.3024699821 1.4208778619
Cl 1.3613975148 6.39586e-05 8.256e-06
H -0.5510309008 1.5994002388 -1.4472119504
H -2.0071561852 1.4196730659 -0.4612362132
H -0.5515564367 2.1443695984 0.2322413854
H -0.5503109903 -2.0530131479 -0.6616498129
H -2.0068803496 -1.1098381508 -0.9986357503
H -0.5515557862 -0.8708798051 -1.9732108139
H -2.0070075431 -0.3103564906 1.4602211654
H -0.5506971724 0.4536065239 2.1085635428
H -0.5514240452 -1.2733794155 1.7409392421
*
