  17
        -25.24750226
 C         -1.0849743217       -1.8946133264        0.0000248151
 C         -0.0104488593       -0.8617767317        0.0000239761
 C          1.3253191617       -1.2462261012       -0.0000070268
 C          2.3467714031       -0.3137772431        0.0000180766
 C          2.0534649033        1.0433740283       -0.0000183125
 C          0.7372463736        1.4497421525        0.0000155317
 C         -0.3070216380        0.5155731991       -0.0000113838
 C         -1.6665869883        1.0313980278       -0.0000325833
 O         -2.7025179940        0.3946524576        0.0000037266
 H         -1.7265906233       -1.7735379902        0.8716704894
 H         -1.7254942622       -1.7745372641       -0.8725656908
 H         -0.6601915926       -2.8943891512        0.0007991963
 H          1.5655327693       -2.2988419329       -0.0002187206
 H          3.3742669117       -0.6434540389       -0.0000925443
 H          2.8483069385        1.7723323862        0.0000428493
 H          0.4937736427        2.5020427098        0.0001989102
 H         -1.7129171001        2.1383729527       -0.0000496750
  17
        -25.24682854
 C         -0.8204982958       -2.2883861978       -0.0001163069
 C          0.0702631219       -1.0859952707        0.0001747500
 C          1.4492022112       -1.2525382211        0.0001942755
 C          2.3115665193       -0.1691892590       -0.0000038887
 C          1.8099639913        1.1245960114       -0.0002882753
 C          0.4455977962        1.3157283139       -0.0001790846
 C         -0.4353195678        0.2273303164        0.0001260547
 C         -1.8642825814        0.5090899133        0.0008130782
 O         -2.3568989958        1.6230318409       -0.0006630643
 H         -1.4595367188       -2.2953427368        0.8806764599
 H         -1.4580007636       -2.2957699923       -0.8819923970
 H         -0.2238393740       -3.1961733488        0.0006356187
 H          1.8570411492       -2.2522586406        0.0003738277
 H          3.3780890494       -0.3338869557        0.0000037427
 H          2.4787200078        1.9707826933       -0.0005036831
 H          0.0171543529        2.3074042995       -0.0002466374
 H         -2.5274984943       -0.3710217153        0.0029912257
