! pbe def2-sv(p) def2/J RI DEFGRID1 loosescf d4 GCP(DFT/SV(P)) printgap
%output
    printlevel normal
end
* xyz 0 1
C -3.168444702 -0.0192775532 1.0194754405
O -1.7594336431 0.0087316238 0.7811101756
C -1.3479008859 -0.1285976447 -0.4726166078
O -2.1113168034 -0.2753320795 -1.4062125923
C 0.1553127299 -0.0765438045 -0.5934425287
C 0.7968214076 -1.1999984163 0.2304267821
C 2.3164172712 -1.1382756953 0.1102017833
C 2.8355769982 0.2177678741 0.578100655
C 2.195068574 1.3395547516 -0.2334987911
C 0.675060921 1.2854818202 -0.1152365655
H -3.2866296806 0.1072686165 2.0909346501
H -3.5838625442 -0.9715522722 0.6877861456
H -3.6551439921 0.7887389374 0.4720455348
H 0.3976488158 -0.2113397298 -1.6521264808
H 0.5025345682 -1.0832712125 1.2747768692
H 0.4310910052 -2.1667954109 -0.1219000913
H 2.7604697871 -1.9351156663 0.7085149149
H 2.6039947751 -1.2986642449 -0.9309240353
H 2.5948502494 0.3525250944 1.6343811958
H 3.9207313814 0.2561672992 0.4718813273
H 2.551950621 2.3077386177 0.1206147892
H 2.4804139312 1.2386052665 -1.2826438213
H 0.3789015556 1.4298540459 0.9251986333
H 0.2230216378 2.0798084357 -0.7130707547
*
