! pbe def2-sv(p) def2/J RI DEFGRID1 loosescf d4 GCP(DFT/SV(P)) printgap
%output
    printlevel normal
end
* xyz 0 1
C -2.6326322505 0.46568552 1.2026140215
C -1.2405088607 0.2344677777 0.6232029395
H -0.5558960713 -0.0284823394 1.4375502463
C -0.6921047195 1.5024139085 -0.0614655113
C 0.2804851075 1.1978221248 -1.2010047162
C 1.1002321184 -0.0682546135 -0.9139165532
H 1.8108748803 -0.2033390135 -1.7391664325
C 0.1197204178 -1.2425716896 -0.9536380157
C -1.2075760506 -0.9591234404 -0.2970632843
O -2.1714132991 -1.6798729695 -0.48166796
C 1.9409429278 0.0606308933 0.3377174942
C 1.8912863808 -0.7592333483 1.3764729319
C 2.918088817 1.2010341933 0.3116026923
H -3.3444745568 0.6665425502 0.4047703167
H -2.9712472298 -0.4198932498 1.7353655992
H -2.620420379 1.3087024534 1.8877562323
H -1.5308325206 2.079713813 -0.4535145212
H -0.2003615484 2.1114820361 0.6978108287
H -0.2812790075 1.0241561181 -2.1216509772
H 0.9314893016 2.0542713395 -1.3695942433
H -0.0909921193 -1.5175314833 -1.9903450848
H 0.5404496943 -2.1352983858 -0.4869039666
H 2.5448766807 -0.6226731623 2.2217936374
H 1.2164262813 -1.5943591229 1.449064491
H 2.4042495399 2.1483295922 0.4642888484
H 3.6589005643 1.088725284 1.0980773051
H 3.4280579121 1.2472556097 -0.6482751601
*
