! wb97x-v def2-tzvp def2/J RIJCOSX DEFGRID2 scfconv7 GCP(DFT/TZ) printgap
%output
    printlevel normal
end
%cpcm
    smd true
    smdsolvent "water"
end
* xyz 0 1
C -3.7921298916536843 0.8946529120390674 -0.042497886652306964
O -2.345390624202697 0.9437862358867309 -0.043222045457307595
C -1.7201002928742701 -0.24956133082087428 0.03586935866149281
O -2.3293090989986904 -1.309696093643953 0.10933632642425513
C -0.2532267167906173 -0.12920387643578077 0.02093366549216542
C 0.399942867528153 1.1090760770040282 -0.07088878972951973
C 1.7819097837286721 1.1768573559326125 -0.08886410029606037
C 2.532120540417503 -0.00039668865114429465 -0.01557909362602872
C 1.8964875599350643 -1.2420356287385672 0.07979789980478588
C 0.5139981733308139 -1.2990005782470997 0.09713694539045332
O 3.8907186765501005 0.1193441556571066 -0.041506674942823826
H -4.115655138717859 1.9304210970866262 -0.14094713237897394
H -4.156632107230706 0.4700310494503306 0.8964102663028635
H -4.152501163780613 0.3014958706704903 -0.8866715335465327
H -0.17578040761543834 2.0250371540796057 -0.12911328277856046
H 2.2929965129737364 2.131043410218461 -0.16047105879175047
H 2.4900787367504758 -2.1497800222859174 0.13679077884437002
H 0.016933707747268018 -2.260031189259811 0.16980595742613128
H 4.294621729408711 -0.7593583082153317 0.011802240977293257
*
