! pbe def2-sv(p) def2/J RI DEFGRID1 loosescf d4 GCP(DFT/SV(P)) printgap
%output
    printlevel normal
end
* xyz 0 1
C -2.6529117088 0.665649078 1.1420838653
C -1.4736916601 0.4265620807 0.2483287803
C -0.797079586 1.4062762995 -0.3331747443
C 0.40188589 1.1953898074 -1.2004462787
C 1.155539572 -0.0863682744 -0.8106368574
H 1.865754404 -0.3142461783 -1.6140487222
C 0.1693731864 -1.2583189304 -0.7573705534
C -1.1166719781 -1.031435168 0.0572029388
H -1.0299836816 -1.5033064213 1.0443161883
O -2.2069078298 -1.7369137438 -0.5311814336
C 1.9792770445 0.1463632653 0.4357817772
C 1.5475280645 -0.0156026679 1.6757018414
C 3.3788392736 0.614067543 0.157575349
H -3.4569478923 -0.0242534326 0.8913054023
H -3.0101666529 1.6877175457 1.0539735443
H -2.3736123666 0.4821471879 2.1799175865
H -1.1056993548 2.4316549415 -0.1800068515
H 0.0861741751 1.122592204 -2.2461917662
H 1.0647087461 2.0588787983 -1.1211792245
H -0.1360756386 -1.4700450981 -1.7858710415
H 0.6782589294 -2.1474738544 -0.3821646852
H -2.3861504738 -1.3569832369 -1.4025845175
H 2.1886982449 0.1870848927 2.5179808478
H 0.5549265677 -0.3470001557 1.9124922451
H 3.3683417796 1.4741571972 -0.5098256042
H 3.8893816919 0.8890803452 1.0760656781
H 3.9452935832 -0.1777506017 -0.3316239628
*
