! pbe def2-sv(p) def2/J RI DEFGRID1 loosescf d4 GCP(DFT/SV(P)) printgap
%output
    printlevel normal
end
* xyz 0 1
C -1.6571984134 -1.3298389897 -0.6351368812
C -1.1460229603 -0.504079157 0.5537337502
H -1.9189006211 -0.507285173 1.3300525225
C -0.8806871236 0.9697504767 0.1570170388
H -1.2229440277 1.1384848035 -0.8711887146
C 0.6186177052 1.280902595 0.2046807151
H 0.889603973 1.451781806 1.260000492
C 1.4384809848 0.1077209558 -0.3515211238
H 1.15247926 -0.0701988885 -1.3936182477
C 1.1661654229 -1.1709857459 0.4591999147
H 1.9404813434 -1.2823582909 1.2345062069
O -0.0315744575 -1.1059763208 1.1954800632
O 1.1905282064 -2.2536816118 -0.4172433449
O 2.8019884084 0.4365400508 -0.3993455823
O 0.8596146706 2.441736084 -0.5491965853
O -1.5231021448 1.8622890377 1.0364068697
O -2.8615131073 -0.743734909 -1.0722844346
H -1.8199827607 -2.359322604 -0.294421975
H -0.9079431305 -1.3352310694 -1.4356456062
H 1.1852024914 -3.0891617127 0.0749707957
H 3.1545123182 0.5333949896 0.498618882
H 1.8054686933 2.4687423201 -0.7702042172
H -2.4642767254 1.907207919 0.8179586989
H -3.2244022217 -1.2659209332 -1.8015042363
*
