! r2scan-3c def2/J RI DEFGRID2 scfconv6 printgap
%output
    printlevel normal
end
* xyz 0 1
C 1.7413074482 -0.3152947353 -0.2212847837
C 0.5662923905 0.585317707 0.1604153165
C -0.6781825334 -0.2139778696 0.3821590611
C -1.8070690661 -0.0476119224 -0.2808176417
H 1.9300417816 -1.0469825333 0.5609926174
H 2.6414198459 0.2768116275 -0.3657591502
H 1.5240567166 -0.8476600137 -1.1445150044
H 0.3960775833 1.3242827107 -0.6244530281
H 0.8139142469 1.1185313899 1.0826508068
H -0.6018525652 -0.9815274495 1.1420182654
H -2.6780643461 -0.6509477247 -0.0893792668
H -1.9086748014 0.7070012703 -1.0438235971
*
