! r2scan-3c def2/J RI DEFGRID2 scfconv6 printgap
%output
    printlevel normal
end
%cpcm
    smd true
    smdsolvent "water"
end
* xyz 0 1
C -1.7462931381 1.0757361489 -0.0282254072
C -0.8869653643 -0.1540177275 -0.0408612054
O -1.377688298 -1.2672061664 -0.0422360811
C 0.62573256 0.0478552745 -0.0091361374
C 0.9996365166 0.1980598475 1.4755115827
C 1.071289124 1.2878993327 -0.7857635051
C 1.3144855847 -1.194901766 -0.5802034665
H -1.6713292049 1.5691036762 -0.9944280679
H -2.7813242347 0.7940909641 0.1468393197
H -1.4143100447 1.7713702116 0.7360172461
H 0.54809969 1.0882099509 1.9052989019
H 0.6633003808 -0.6693183913 2.0396622471
H 2.0794300644 0.2765975496 1.5709890979
H 2.1571680433 1.3424696197 -0.7762837832
H 0.6837936688 2.1996859309 -0.3427362937
H 0.7442518658 1.2297164401 -1.8211795792
H 0.9643608969 -2.0879283425 -0.0678866937
H 2.3916519988 -1.1190030722 -0.4610222006
H 1.084262985 -1.3021300913 -1.6380729691
*
