! r2scan-3c def2/J RI DEFGRID2 scfconv6 printgap
%output
    printlevel normal
end
* xyz 0 1
C 0.4107331469 1.7143001725 -0.155583831
C 0.4484556763 0.2798233113 0.3298732826
H 0.3066121647 0.2243390368 1.4110208389
C -0.543303752 -0.6233049537 -0.382930105
Cl -2.2140141862 -0.1688974482 0.0759931342
Cl 2.0896067036 -0.4160947264 0.0221080037
H 0.6187651121 1.7613861305 -1.2212913207
H -0.5785845112 2.1247829594 0.0304849384
H 1.1458494955 2.3131595119 0.3738111011
H -0.4686085708 -0.5172739837 -1.4641421608
H -0.4122928227 -1.6649223987 -0.0942711651
*
