! r2scan-3c def2/J RI DEFGRID2 scfconv6 printgap
%output
    printlevel normal
end
%cpcm
    smd true
    smdsolvent "water"
end
* xyz 0 1
C 3.2505132595 -0.5225733889 0.7800082382
C 1.899149278 -0.3145612923 0.1909330359
C 1.304042755 0.8889552219 0.1777060612
C -0.0250371965 1.135060562 -0.3483202548
O -0.5159493905 2.2621549243 -0.3631566146
C -0.8015883178 -0.064667332 -0.8519703952
H -1.4173377211 0.2874177015 -1.6871781012
C 0.1482332587 -1.137659047 -1.3869735553
C 1.2331279557 -1.520852315 -0.3875478313
C -1.7860341084 -0.5653690729 0.2416974297
C -1.2773518025 -0.3785167933 1.6716273111
C -3.1210437201 0.1640698206 0.0944186616
H 3.2312581094 -1.3622471877 1.4720170977
H 3.5985960796 0.3653409323 1.2992164134
H 3.9595554514 -0.7680831921 -0.0095491017
H 1.8043358555 1.757766382 0.5844858611
H -0.4263417627 -2.0191764174 -1.6754479121
H 0.6274503184 -0.7430159541 -2.2866980922
H 0.8037901123 -2.1101564186 0.427029017
H 1.9796697627 -2.1514135112 -0.8739350127
H -1.9526928079 -1.6339842068 0.0680683446
H -1.9950089849 -0.8035791119 2.3700747709
H -1.1716241356 0.6808397083 1.8998736044
H -0.3179449789 -0.8581774592 1.8336240528
H -3.8107433291 -0.1388300672 0.8786732729
H -3.5785412808 -0.0503503901 -0.8687340975
H -2.9638678422 1.2390068631 0.1693789414
*
