! wb97x-v def2-tzvp def2/J RIJCOSX DEFGRID2 scfconv7 GCP(DFT/TZ) printgap
%output
    printlevel normal
end
%cpcm
    smd true
    smdsolvent "water"
end
* xyz 0 1
C 2.8993201747662347 -0.06113431002516356 -0.0009954756206136714
C 1.4011704641075142 -0.004132579680797919 0.0004080747796155763
C 0.7088439857601806 1.211132582944425 0.0002834087372477043
C -0.6754021761583583 1.2108629358063476 0.00024332085258576866
C -1.3675153658745247 -0.00571268148690836 0.0002469572695921405
N -0.7172907468038122 -1.179458945749692 0.0006833286243725676
C 0.6263447402271807 -1.1592195412676727 0.0008455003706544545
C -2.866766972093278 -0.027201478035139295 -0.0006921394457692218
H 3.308776011751269 0.42692846227867554 -0.8919502297125834
H 3.3119315469024566 0.45879851851891984 0.8700846800685315
H 3.2535184969935615 -1.0948494714913977 0.016532420570409902
H 1.2581197046134647 2.149083289206857 0.00036021538196974614
H -1.2293643638620715 2.144870506242283 0.0003581961840189978
H 1.116382155736514 -2.132214831410669 0.0015526743742716378
H -3.2415817307912076 -1.0520049530574134 0.007455284802985279
H -3.2626450120319572 0.49896416912470326 0.8746784678167888
H -3.260973884406543 0.48381954263392735 -0.8858325381599892
*
