! wb97x-v def2-tzvp def2/J RIJCOSX DEFGRID2 scfconv7 GCP(DFT/TZ) printgap
%output
    printlevel normal
end
%cpcm
    smd true
    smdsolvent "water"
end
* xyz 0 1
C -2.751870468139057 -0.2851722860480378 -6.098524593455532e-05
C -2.3760100954882795 1.0739109634725208 9.677541339790363e-07
C -1.047111327299427 1.428608435570251 2.947801314674852e-05
C -0.030165897010017366 0.4425036821935556 -3.999134667288935e-06
C -0.4106626361520546 -0.9416614080713843 -3.3386001786219124e-05
C -1.7902296289789466 -1.2663822900236164 -7.195848666010022e-05
C 0.583210238444166 -1.9493715852934523 -1.3007845665490094e-05
C 1.9137655626939665 -1.6039282024406718 2.7767402976072684e-05
C 2.308975279217223 -0.2541843556053167 2.4077220586118937e-05
C 1.3627591890179802 0.7481434931958031 -3.469269171696333e-06
O 1.832366687331764 2.0402413778868884 -1.2249383478461404e-05
H -3.803826106175005 -0.5522570657826416 -9.453480054244332e-05
H -3.1392765787164376 1.84515909260435 3.224500149472047e-05
H -0.7958466961431773 2.484998023616114 9.293620890564297e-05
H -2.0731051134658487 -2.315258251926167 -0.0001078903765542241
H 0.2756715120370947 -2.9903958532826564 -2.7234120937779516e-05
H 2.678266216550271 -2.374474849243352 5.139423545116638e-05
H 3.3604542921163136 0.013543184769464702 3.16309223673978e-05
H 1.1032526938133218 2.673887132230761 -0.0002161349894557061
*
