! r2scan-3c def2/J RI DEFGRID2 scfconv6 printgap
%output
    printlevel normal
end
* xyz 0 1
C 2.8534884093 0.7154734732 -0.2516335699
C 1.9964197215 -0.4659390135 0.1935843377
C 0.5158200225 -0.2337460262 0.0943523094
C -0.0685886776 1.0168895685 0.2663873745
C -1.4454998919 1.1360601871 0.1758840345
N -2.2603344629 0.1202049122 -0.0652841052
C -1.7068090919 -1.0733333015 -0.2261200697
C -0.3438409562 -1.3005093112 -0.1582413082
H 2.5645088784 1.0418040039 -1.2479618155
H 3.8992364484 0.4205157787 -0.2751629442
H 2.757089451 1.5546161126 0.4318024734
H 2.2315722406 -0.7077005958 1.234647012
H 2.2487525616 -1.3431930129 -0.405926034
H 0.5286960882 1.890701173 0.4671728102
H -1.9284691242 2.096039413 0.3024308004
H -2.3981127916 -1.8824170716 -0.4214453469
H 0.0462662877 -2.2966431218 -0.3010334585
*
