! wb97x-v def2-tzvp def2/J RIJCOSX DEFGRID2 scfconv7 GCP(DFT/TZ) printgap
%output
    printlevel normal
end
* xyz 0 1
C -1.1502364040146396 -1.28930528056904 -0.5936668426677134
C -0.7002144661204767 -0.22737754690398332 0.40318041390055537
C -1.5467771876320606 1.023959391591574 0.37360614791573704
N 0.7549264853667055 0.09582057519221239 0.062192888895250015
O 1.6100690255920789 -0.6903732477524265 0.4570761721104997
O 0.9982511918908421 1.084554348572765 -0.6178220470497245
H -0.5186241296304084 -2.179241972424349 -0.5410644906075347
H -2.1755043353507553 -1.5741167895193993 -0.34371189403720553
H -1.1382568977166805 -0.8895023814310292 -1.611990377380688
H -0.6391873930990037 -0.6516779142193494 1.4084068389839621
H -1.143148724084303 1.7983481635331233 1.0305915198681799
H -2.5451124722813607 0.7567691299537279 0.7312425339405977
H -1.6388350487629657 1.4209966369496942 -0.6400445062814749
*
