! wb97x-v def2-tzvp def2/J RIJCOSX DEFGRID2 scfconv7 GCP(DFT/TZ) printgap
%output
    printlevel normal
end
%cpcm
    smd true
    smdsolvent "water"
end
* xyz 0 1
C -3.12073676338272 -0.7758777411859675 0.1803964459357302
O -1.8850764843472856 -0.49488969773328695 -0.5254810492198704
C -1.1049743755912098 0.4630948220852279 0.011576934627270262
O -1.410344515266298 1.05718845233026 1.0327808533717941
C 0.12361523446701858 0.739918518790978 -0.8310355141447274
C 0.7872318878769923 -0.540774227724416 -1.36911455610061
C 1.4590862328285001 -1.3315468908832864 -0.24584621178489804
C 2.4907980744476252 -0.46949465610480046 0.484933333899585
C 1.8469008778133957 0.8042057871024363 1.0361070618120025
C 1.1434379231847642 1.5963587485433648 -0.06960070841755697
H -3.7452562785568495 0.11966681769268717 0.22052558989607404
H -2.9056849113648973 -1.1295528823409153 1.1913713724791557
H -3.611965359684108 -1.5566095277090062 -0.3988721172556923
H -0.26363376132592814 1.3145560138693746 -1.6855212031802709
H 0.060676038690580525 -1.1571420473679421 -1.9046407207581373
H 1.5486373428100806 -0.23423698426709835 -2.0971419262835664
H 0.6967289361733028 -1.6731403397679012 0.47005862410736576
H 1.9332213530710258 -2.2299746379582626 -0.6568639120279872
H 2.957459134411333 -1.0392087962073715 1.296695089019128
H 3.2896401636913497 -0.19681245551893067 -0.21896002605425902
H 1.1200331399832275 0.5309841383105082 1.81203106791222
H 2.602338103094837 1.4367324776996948 1.5160448734302503
H 0.6577348851063116 2.487101119421829 0.3405721824476107
H 1.890615081351163 1.9407762607687387 -0.7950567135432339
*
