! wb97x-v def2-tzvp def2/J RIJCOSX DEFGRID2 scfconv7 GCP(DFT/TZ) printgap
%output
    printlevel normal
end
* xyz 0 1
C -2.9327079716596307 -2.79879196712626e-06 -0.053065459699524
C -1.4577526257958198 -3.339181314684544e-05 0.3371029206050929
C -0.7433178405580694 -1.2531200658638333 -0.1796257453212763
C 0.7433396223209213 -1.2531014320367535 0.1795611196226606
C 1.4577067067199754 3.9713770794070976e-05 -0.33712064237398776
C 0.7433402529129918 1.2531302377743292 0.1796845994545243
C -0.7433430324659117 1.2531565615602787 -0.17940953813182386
C 2.9327342940098484 8.378386352765344e-06 0.05276463271548033
H -3.4475584629637113 0.8859320412662313 0.3352632543722901
H -3.0419406518480576 0.00018562270576378718 -1.1445276747748794
H -3.4475137493933365 -0.8860986455271019 0.3349536301304448
H -1.3852902777761804 -0.00013506989927345223 1.4358097165859343
H -1.2303344631954634 -2.1512597159664937 0.22106455701385322
H -0.8537481595538031 -1.2926288900716332 -1.2737073043524607
H 0.853772179249953 -1.2926204071734162 1.2736437233998181
H 1.230386925233594 -2.1512207319162933 -0.22113983708909457
H 1.3850458331250286 9.459086099404677e-05 -1.4358150396497393
H 0.8538702178392618 1.2926322750310215 1.27375508707335
H 1.2303278899274155 2.151266315870042 -0.22104531388408954
H -1.2303539401715629 2.151212728266179 0.22147298808521973
H -0.85383332820497 1.2928722853951582 -1.2734762846875374
H 3.0421975295846253 -0.0006348649318055763 1.1442027434096946
H 3.4473525199788067 0.8863313740101902 -0.3349868939757308
H 3.4476087754918177 -0.8856962989275726 -0.3360569656052321
*
