! pbe def2-sv(p) def2/J RI DEFGRID1 loosescf d4 GCP(DFT/SV(P)) printgap
%output
    printlevel normal
end
* xyz 0 1
C -3.4367956071 0.634288119 0.0722714207
C -1.941710023 0.5070107677 0.0620600209
C -1.143214604 1.4900252882 -0.3316006139
C 0.3501150683 1.4222694012 -0.3539104857
C 0.8572176393 -0.01632963 -0.2099899269
H 0.612095617 -0.5623124725 -1.1264651876
C 0.0859628965 -0.6916741116 0.9258593347
C -1.385362493 -0.8200517847 0.5339398849
H -1.962316405 -1.1563528703 1.4130606545
O -1.4728606075 -1.8241393949 -0.4734024819
C 2.3538123787 -0.0503048787 -0.00756298
C 2.9320323158 0.3570993995 1.1115650357
C 3.1453519869 -0.5610848006 -1.1719095421
H -3.8229223364 0.4426820151 1.072878488
H -3.8955847792 -0.0850113077 -0.605199967
H -3.7376450487 1.6319147709 -0.2348858389
H -1.571487141 2.4320376779 -0.6495892901
H 0.7213168513 1.8590696815 -1.2841827564
H 0.7438751917 2.0320451507 0.4658741796
H 0.4874867545 -1.688875512 1.1110604598
H 0.1590836027 -0.1057132227 1.8415607149
H -2.3877159048 -1.8904542964 -0.7752681408
H 4.0014564992 0.3351949767 1.236294864
H 2.3680658973 0.7258764291 1.9509743843
H 2.861795282 -1.5901073715 -1.3893306902
H 2.9325050308 0.0349716884 -2.058308511
H 4.2123639386 -0.5247194124 -0.9699100665
*
