! wb97x-v def2-tzvp def2/J RIJCOSX DEFGRID2 scfconv7 GCP(DFT/TZ) printgap
%output
    printlevel normal
end
%cpcm
    smd true
    smdsolvent "water"
end
* xyz 0 1
C 3.69769723871951 0.37553869048022387 0.07626447229054104
C 2.2264178276304842 0.329348731578437 -0.32528125490041954
H 2.1572622724884085 0.44160142572042416 -1.4179214916001257
C 1.4312828997491784 1.4685973217299755 0.3166324646560658
C -0.05342459553376324 1.3952506722267572 -0.0398729953187714
C -0.6755776319668659 0.049362712617978095 0.362644796059493
H -0.5250768808873535 -0.07617532731973253 1.447178455673359
C 0.11266328025707936 -1.069220190814148 -0.31819643548792065
H 0.01848913424135741 -0.9640778806267433 -1.4110124046096146
C 1.590333916631364 -1.0110504016501982 0.054709589966272176
O -0.457318380155202 -2.339615194749169 0.0786315723605717
C -2.1996930042946246 -0.03194808797203524 0.11376684123722655
C -2.9610650549563213 0.9728228511704702 0.982673236042384
C -2.5932491859080624 0.1348651102817425 -1.3556832553132852
H 4.155920028107567 1.32816694411738 -0.21170908987652037
H 3.8028382336510553 0.26636888215964566 1.1624857937314654
H 4.266543573892802 -0.43086554672682403 -0.39948892434118344
H 1.5488540185271509 1.4087698950482233 1.4086255990860428
H 1.8462621616432324 2.434607000113653 0.002811341467337172
H -0.592137314598105 2.212740428197618 0.4501410490644049
H -0.16805685392389272 1.5416853029978685 -1.1221125998160528
H 1.6839258774160575 -1.161751626051509 1.1401625537867301
H 2.1218885063390918 -1.8355921424426116 -0.4396262763750259
H 0.08911211455419339 -3.029631389669193 -0.32020127092259615
H -2.514717462694665 -1.033508025864685 0.4309306665143277
H -4.039145018550112 0.7867789930265479 0.9270503188420545
H -2.7896476107452823 2.0034702518264464 0.6533713476811557
H -2.660559262368001 0.8993919779634273 2.034268661225454
H -2.343682298448457 1.1358712251099965 -1.7246554900913773
H -3.674472042724558 0.0021524274534938537 -1.4724387411020239
H -2.099600653401621 -0.5978900220219632 -2.0025125116324056
*
