! pbe def2-sv(p) def2/J RI DEFGRID1 loosescf d4 GCP(DFT/SV(P)) printgap
%output
    printlevel normal
end
* xyz 0 1
C -3.5588559615 0.3680370423 -0.2498570724
O -2.1789369326 0.4483069031 -0.6193100388
C -1.3070258322 -0.2433278717 0.1077181271
O -1.6333221773 -0.9380197241 1.0472205898
C 0.1089988022 -0.0141201829 -0.3591849441
C 0.9545782021 -1.2768657666 -0.189734872
C 2.4032792117 -1.0081694167 -0.5837407092
C 2.9837772921 0.131457084 0.2476669613
C 2.1453507701 1.393763802 0.0735584246
C 0.6971943981 1.1345682393 0.4767586432
H -3.698269057 0.7659583758 0.7558210813
H -3.8890183941 -0.6711378872 -0.2690743248
H -4.093391664 0.9629160431 -0.9834240245
H 0.0758444394 0.2898384112 -1.4087443643
H 0.9001691753 -1.5946859547 0.853556454
H 0.5398330257 -2.0799099073 -0.8023999905
H 2.9929898043 -1.9144099284 -0.4390816933
H 2.4458603253 -0.7436224276 -1.6423014606
H 2.9904537116 -0.15643706 1.300894623
H 4.0137523384 0.3251632668 -0.0555894276
H 2.5517085244 2.2001946403 0.6856726419
H 2.1783165297 1.7114194597 -0.9702965351
H 0.6505330819 0.8593896452 1.5330543079
H 0.0975387718 2.0352602034 0.3314039298
*
