! pbe def2-sv(p) def2/J RI DEFGRID1 loosescf d4 GCP(DFT/SV(P)) printgap
%output
    printlevel normal
end
* xyz 0 1
C 2.4972036449 0.0479956605 0.0430702095
C 0.9986568425 0.0755149152 0.010289055
C 0.3059165116 1.2019044592 -0.0814942756
C -1.1910267675 1.2757747249 -0.1073864621
C -1.8251622735 -0.0332769168 0.3542884982
C -1.1335887925 -1.2053923249 -0.3320818438
C 0.3268985963 -1.2677139649 0.1057420016
H 2.8440135034 -0.4720132418 0.9353231491
H 2.9072135318 1.05432953 0.0413773594
H 2.8835605479 -0.4878427982 -0.8234679968
H 0.8225905023 2.1501738187 -0.1581750687
H -1.5255782147 2.1016342569 0.5257511568
H -1.5153586203 1.5039457444 -1.1288248347
H -1.7091829682 -0.1324162606 1.4356061529
H -2.8928025773 -0.0320071298 0.1272845202
H -1.6363229824 -2.1427083652 -0.0866458752
H -1.1838757003 -1.0671828193 -1.4141728006
H 0.3850839422 -1.6154542796 1.1425843297
H 0.872131387 -1.9902545788 -0.5063959127
*
