! r2scan-3c def2/J RI DEFGRID2 scfconv6 printgap
%output
    printlevel normal
end
%cpcm
    smd true
    smdsolvent "water"
end
* xyz 0 1
C -1.8132027437 -1.4608730866 -9.92936e-05
C -0.5230876999 -0.6994046598 3.32061e-05
C 0.6891607783 -1.3754484047 7.48985e-05
C 1.8922368619 -0.6914939826 2.98408e-05
C 1.892235234 0.6915034362 -7.91814e-05
C 0.689156398 1.375448318 -2.81854e-05
C -0.5230902785 0.6993975356 5.74724e-05
C -1.8132119704 1.4608690567 4.75303e-05
H -1.627009839 -2.531481093 -0.0001504331
H -2.4048910027 -1.2103786486 0.8792631576
H -2.4047359852 -1.2102431665 -0.8795262065
H 0.6913420345 -2.4564863374 0.0001310114
H 2.8245319032 -1.2368089263 5.96329e-05
H 2.8245270728 1.2368262842 -0.0001753492
H 0.6913260497 2.4564869675 -0.0001374128
H -2.4053257238 1.2095184457 0.8788899918
H -1.6270124134 2.5314776983 0.0011160791
H -2.4043545562 1.2111100751 -0.8799029078
*
