! r2scan-3c def2/J RI DEFGRID2 scfconv6 printgap
%output
    printlevel normal
end
%cpcm
    smd true
    smdsolvent "water"
end
* xyz 0 1
C 1.7578732172 0.0816975269 -1.5107698537
C 3.1347050949 0.1429036095 -1.6160065467
C 3.9113037022 0.3181069826 -0.4808912906
C 3.299605216 0.4457249192 0.7616582933
C 1.9205202402 0.3947680198 0.8666161501
C 1.1397465259 0.2014626887 -0.2691914969
C -0.3286841156 0.1521973363 -0.1357872064
C -0.989611925 1.1785593293 0.531829913
C -2.366595866 1.1677841461 0.6696373064
C -3.1183440979 0.1184461685 0.1452614197
C -2.4667473531 -0.9225731133 -0.5120617053
C -1.0806314215 -0.905451638 -0.6528160859
Cl -0.3139642518 -2.2418443041 -1.4221536709
Cl -3.3853898369 -2.2348566804 -1.14389887
Cl -4.8317909455 0.0966138041 0.3098554322
Cl -3.1617373376 2.4549588418 1.4915134274
Cl 4.2598193769 0.6690939058 2.1872115865
Cl 5.6371314644 0.3807776254 -0.6136188025
H 1.161904019 -0.0408262855 -2.399709832
H 3.6162902812 0.0546514233 -2.575609917
H 1.4589537111 0.4849341844 1.8359589368
H -0.4225380145 2.0023399916 0.933017473
*
