! wb97x-v def2-tzvp def2/J RIJCOSX DEFGRID2 scfconv7 GCP(DFT/TZ) printgap
%output
    printlevel normal
end
* xyz 0 1
C 1.2362019730132334 0.441940813610939 -1.5610653740377962
C 2.613477015711325 0.5367804306550014 -1.7006813657655921
C 3.4400952885338865 0.3012642820304623 -0.606754745530594
C 2.8831231508149493 -0.029541053330961003 0.6300902215463084
C 1.5036910575035087 -0.12559139775936617 0.771216805023773
C 0.6801727908498263 0.1105394954171213 -0.32611646556611196
C -0.7933571996207962 0.007477278238674237 -0.171998486358929
C -1.5569147604804219 1.1312003729969413 0.16149746820596128
C -2.9426438568668436 1.0314250982127766 0.3019067784905279
C -3.58161158085025 -0.18489730958699574 0.11301700321653098
C -2.8345504208561985 -1.3054363401962146 -0.217901347875708
C -1.4484305968970652 -1.2141978575423125 -0.36056626243319395
Cl -0.5147503353088231 -2.6201209626394646 -0.778733455170957
Cl -3.6641911782734917 -2.8167283201830275 -0.4506179859547713
Cl -3.906359242569819 2.4194255146379526 0.715787622279182
Cl -0.7583879168234331 2.656904869615593 0.4016495982336665
Cl 3.8936129295323227 -0.33018636680896885 2.0208378583419084
Cl 5.168620189946191 0.4254276606429184 -0.8087509443211307
H 0.5942277521589568 0.6261555937859558 -2.415660328174265
H 3.0516120268041522 0.7938137868904784 -2.6584164378589317
H 1.0754788515103137 -0.38356407606755377 1.73348615246466
H -4.656700796675228 -0.2591212314415069 0.22253972068931155
*
