! wb97x-v def2-tzvp def2/J RIJCOSX DEFGRID2 scfconv7 GCP(DFT/TZ) printgap
%output
    printlevel normal
end
* xyz 0 1
C 0.7264635070657842 -1.2050080392320623 0.23011318963021044
C -0.7266505749493986 -1.2049401929640013 -0.2299167857048585
N -1.472917893367684 0.00015215098670996096 0.18834460941540432
C -0.72653728610588 1.2051797711311711 -0.2299091628140142
C 0.7266432539435429 1.2050992964954652 0.22995322685318273
N 1.4728614158455964 -3.867970239459506e-05 -0.18827721924280505
H 1.2408338138435966 -2.093799399636627 -0.15401201837665707
H 0.7585911869866782 -1.2601598756797963 1.327111585824523
H -0.7587758545382501 -1.260210110632164 -1.326909687020289
H -1.2411301159603143 -2.093629489671329 0.15430110087904225
H -1.4716917393147264 0.00014462537604161365 1.2078689797499114
H -0.7588070638230165 1.26056113106908 -1.3268903437825375
H -1.2408594740625178 2.0938942991770175 0.15446583846643977
H 1.241075978846956 2.093743257511961 -0.15443489164874905
H 0.7589220900813837 1.2604868252596093 1.3269335918455551
H 1.4715498848129187 -0.00011230053509927829 -1.2078017709627655
*
