! r2scan-3c def2/J RI DEFGRID2 scfconv6 printgap
%output
    printlevel normal
end
* xyz 0 1
C 1.5767553451 0.5053776256 -1.7221893688
C 2.9481759724 0.574152529 -1.8764953663
C 3.7729121555 0.4477620301 -0.7692117734
C 3.224668826 0.25402434 0.4962467902
C 1.8412563605 0.1940878846 0.6414672984
C 1.0058007089 0.3186653041 -0.467711781
C -0.4625385931 0.2500722253 -0.3070030199
C -1.1321766541 1.2223902983 0.4251015159
C -2.5059182488 1.1615236882 0.5867959023
C -3.2375756415 0.1205483623 0.0180464898
C -2.5736124773 -0.8591514817 -0.7169791304
C -1.1914697967 -0.7922523911 -0.8799256075
Cl -0.3878706083 -2.0321702747 -1.7606627118
Cl -3.4655001127 -2.1542024017 -1.4143295178
Cl -4.9436115209 0.0351595731 0.2215339898
Cl -3.3191097948 2.3729978107 1.4985578959
Cl 1.168039098 -0.0775562631 2.2084485949
Cl 4.2488754517 0.0841934061 1.8758367756
Cl 5.4862490915 0.5250347121 -0.9507955524
H 0.9330631404 0.6058262305 -2.5803234078
H 3.3868536272 0.7229310452 -2.848778211
H -0.5787858336 2.0346024931 0.8666990187
*
