! r2scan-3c def2/J RI DEFGRID2 scfconv6 printgap
%output
    printlevel normal
end
%cpcm
    smd true
    smdsolvent "water"
end
* xyz 0 1
C -1.9505054903 0.4890432977 0.103222774
C -0.8999795687 -0.5767846943 -0.1796668953
C 0.5508936282 -0.1620037944 -0.030360404
O 1.4563096637 -0.9859597776 -0.162793295
N 0.8046897624 1.1209355874 0.2428325038
H -1.8746514168 1.3138930179 -0.6008059533
H -2.9391856048 0.0503828924 -0.0059505813
H -1.862672738 0.8646329583 1.1196030874
H -1.0075430138 -0.9522755663 -1.2003247985
H -1.0425431592 -1.4353583492 0.4806348118
H 0.0668759081 1.7945406379 0.3479692003
H 1.7631307939 1.4137497296 0.3411585135
*
