! r2scan-3c def2/J RI DEFGRID2 scfconv6 printgap
%output
    printlevel normal
end
* xyz 0 1
C -2.2369305496 0.2710320125 2.08515e-05
C -1.776302227 -1.038149297 -2.58676e-05
C -0.4189058904 -1.2934149124 -4.39223e-05
C 0.4903390965 -0.2327083369 1.85597e-05
C 0.0174144116 1.083115651 -7.65351e-05
C -1.3405089339 1.3306933101 3.69912e-05
C 1.9232570848 -0.4959093389 1.9022e-05
O 2.7985266939 0.3469103662 2.57153e-05
H -3.2981370759 0.4662405844 -0.0001167877
H -2.4790107638 -1.8566655245 0.0005283945
H -0.0509721165 -2.3084242543 -0.0002249508
H 0.7380128857 1.8874110626 -0.000256378
H -1.7037506886 2.3464813051 0.0001991934
H 2.1911644162 -1.5690710735 6.8877e-05
*
