! wb97x-v def2-tzvp def2/J RIJCOSX DEFGRID2 scfconv7 GCP(DFT/TZ) printgap
%output
    printlevel normal
end
* xyz 0 1
C -1.3292943481081585 0.7757827345314311 -0.4269579798072679
C -1.5435324139233442 -0.6643861904709208 0.05115281390999492
C -0.12203898639645314 -1.2386599725918148 0.029307677274368064
C 0.7994785360392878 -0.07059915812467149 0.45203659621738307
C -0.08014875462660265 1.201127402650863 0.35538102455019854
O 1.997378566823451 0.0009949227830114782 -0.3516859488562229
H -2.189469064306707 1.4276200493761155 -0.24725050571457902
H -1.1241511870406786 0.7779811579966479 -1.5051365055285015
H -1.935489795055227 -0.6570125640289919 1.0759563591366061
H -2.2402451732670112 -1.2335684260428519 -0.5715913360719079
H 0.00668702286498182 -2.1247815849847846 0.6570607215093663
H 0.1378131707524048 -1.5197617735163609 -0.9993696633118148
H 1.1727034140032715 -0.2059816589708076 1.470865180532664
H -0.37197640563467826 1.5154360648453862 1.363855055087752
H 0.47253047251973734 2.0279932173272135 -0.10084985226471804
H 1.717656490128054 0.09477597916832996 -1.2725476484603142
*
