  13
        -22.34689977
 C          1.3352528365        1.3285126050        0.0000069642
 C         -0.0286234949        1.1070580105       -0.0000625069
 C         -0.4957953065       -0.2113582785       -0.0000199947
 C          0.4493863373       -1.2418081333        0.0000154631
 N          1.7508341331       -1.0295453620       -0.0000071422
 C          2.1805725832        0.2251356653        0.0000190306
 C         -1.9272228965       -0.5044825448        0.0000188718
 O         -2.8086783957        0.3276078356        0.0000017075
 H          1.7385689508        2.3276526686        0.0001062343
 H         -0.7433883194        1.9167712415        0.0002544017
 H          0.1389513024       -2.2782194679       -0.0000917346
 H          3.2549569818        0.3441365250        0.0000035769
 H         -2.1720155142       -1.5813595609        0.0000638735
  13
        -22.34677979
 C          1.5808486044        1.3018108058       -0.0000502723
 C          0.1997194755        1.3678510761        0.0000210921
 C         -0.5268134913        0.1746086986        0.0000237362
 C          0.1876307258       -1.0294911884       -0.0000119952
 N          1.5039043851       -1.0917780814        0.0000421822
 C          2.1816122763        0.0487100705        0.0000061702
 C         -1.9876107673        0.1781935805        0.0000121322
 O         -2.6916216814       -0.8082835691       -0.0000089297
 H          2.1824770616        2.1956446904       -0.0000615515
 H         -0.3162469257        2.3165379283       -0.0001757292
 H         -0.3458363605       -1.9706490963       -0.0000746734
 H          3.2574623125       -0.0557390610       -0.0002248601
 H         -2.4390245991        1.1871911267        0.0000820936
