! pbe def2-sv(p) def2/J RI DEFGRID1 loosescf d4 GCP(DFT/SV(P)) printgap
%output
    printlevel normal
end
* xyz 0 1
C -2.5241871847 -0.7519885066 -0.436282484
C -1.1614427702 -0.3693533734 0.1434107314
H -1.2434398977 -0.3751705295 1.2430139001
C -0.7069144272 1.0209406129 -0.3325495827
H -0.6775198981 1.0294726367 -1.427748645
C 0.7070208386 1.3205564582 0.197848593
H 0.6654397902 1.3914662789 1.3006893112
C 1.663845129 0.179792776 -0.1820693896
H 1.7625561848 0.1552688598 -1.2724147078
C 1.0596686443 -1.160722643 0.3055157373
H 0.9844799847 -1.148108914 1.4071955594
O -0.2211017673 -1.3458262175 -0.2602249608
O 1.8416939298 -2.2495956508 -0.0032825771
O 2.9650310925 0.3652167024 0.2977772618
O 1.1962891872 2.527350574 -0.3305322517
O -1.6016009287 2.040176017 0.0285672239
O -3.1809481419 -1.5983445888 0.4787679211
H -2.3516618669 -1.2554315863 -1.3931050895
H -3.1043873266 0.165298347 -0.5991369364
H 1.8754946453 -2.3717875484 -0.9649079404
H 2.9621602771 0.4440790107 1.262664181
H 0.472355966 3.1739608542 -0.3427537048
H -1.7546725779 2.0238818947 0.9855717833
H -3.9905621775 -1.9402627325 0.0745972288
*
