! pbe def2-sv(p) def2/J RI DEFGRID1 loosescf d4 GCP(DFT/SV(P)) printgap
%output
    printlevel normal
end
* xyz 0 1
C -2.3720931978 -1.1422207946 -0.4207258499
C -1.0805274918 -0.6285713111 0.224021785
H -1.1777607113 -0.6685786185 1.3212022861
C -0.8019904806 0.8392952236 -0.16319618
H -0.9243355947 0.964623029 -1.2504953859
C 0.6349570435 1.2495380163 0.1896846889
H 0.6811563912 1.3915928714 1.282402763
C 1.6517755966 0.1733815474 -0.2300231011
H 1.6735648708 0.1237784758 -1.3248089155
C 1.2110279711 -1.1936523089 0.3234703245
H 1.1606394523 -1.14644063 1.4254427347
O -0.0612233976 -1.5079082798 -0.2034668404
O 2.0811511385 -2.2173593973 0.0255820059
O 2.95319516 0.5284325268 0.1600387074
O 0.9144188994 2.4641246775 -0.4611236311
O -1.6636272589 1.7024566844 0.532725813
O -3.4557692628 -0.3615090472 0.0237860941
H -2.4918920075 -2.1938644087 -0.1373653387
H -2.2584831357 -1.0803864362 -1.5100076023
H 2.0824190177 -2.3851149896 -0.9299611888
H 3.0732571469 0.3761296376 1.1085764781
H 1.8608752848 2.6536987482 -0.3599304776
H -2.576188609 1.3853906541 0.4116261709
H -4.2775069987 -0.7076123728 -0.3527480129
*
