! pbe def2-sv(p) def2/J RI DEFGRID1 loosescf d4 GCP(DFT/SV(P)) printgap
%output
    printlevel normal
end
* xyz 0 1
C -2.0435104432 -1.1976493373 -0.3018353662
C -1.2792161381 -0.3472173789 0.7325417046
H -1.9351327244 -0.2495826198 1.604017922
C -0.9405157514 1.0788170177 0.2218485889
H -1.261305825 1.2063983693 -0.8165588707
C 0.5792204282 1.2902344826 0.2630788326
H 0.9041111952 1.3590527184 1.3165040073
C 1.269499633 0.081503689 -0.3930112936
H 0.8749414374 -0.0438275314 -1.4073218584
C 0.9764214628 -1.1917923168 0.4280189186
H 1.8009552109 -1.3861015746 1.1267640057
O -0.1399879608 -1.0129094194 1.2718395417
O 0.8935471443 -2.3328180125 -0.3552220717
O 2.6412417437 0.3277500202 -0.5672797659
O 0.9061508612 2.4777182543 -0.4118395425
O -1.651799618 2.0611723528 0.9265016204
O -1.3992612093 -1.2974937562 -1.5566588357
H -3.0469612138 -0.7817645311 -0.4080711074
H -2.1183538488 -2.2143655107 0.0941770908
H 0.1791492227 -2.2282492094 -1.0137117376
H 3.1064514909 0.2705171366 0.2802381563
H 1.8075386856 2.385705435 -0.7638200935
H -1.2844423642 2.1664875215 1.8158047135
H -1.7300732308 -0.621370818 -2.1614128523
*
