  16
        -29.80254879
 C         -2.5794097868       -0.2642612898        0.0000007855
 C         -1.8720244434       -1.4763075569       -0.0000042655
 C         -0.5070302235       -1.4533887198       -0.0000067755
 C          0.2023749740       -0.2345205294       -0.0000043382
 C         -0.5033716938        1.0027433253       -0.0000009210
 C         -1.9170545916        0.9307788985        0.0000060819
 N          0.0921676869        2.1954822111        0.0000017862
 N          1.5899003215       -0.3015552595       -0.0000005324
 O          2.1431657114       -1.4064249980        0.0000125604
 O          2.2645395145        0.7395403192       -0.0000082875
 H         -3.6578018984       -0.2803359527        0.0000170611
 H         -2.4016311152       -2.4140634783       -0.0000011861
 H          0.0726719280       -2.3633265356       -0.0000073870
 H         -2.4671734484        1.8583426674        0.0000088261
 H          1.1008968582        2.2511214974       -0.0000009506
 H         -0.4704901565        3.0293419249        0.0000107895
