! pbe def2-sv(p) def2/J RI DEFGRID1 loosescf d4 GCP(DFT/SV(P)) printgap
%output
    printlevel normal
end
* xyz 0 1
C -4.382783845 0.5121092437 0.1690273757
C -3.5626305601 1.4968544823 0.6895702583
C -2.1851486764 1.3531921963 0.6400833231
C -1.5991283624 0.2213388706 0.0728380408
C -2.4332054465 -0.7723794434 -0.433168787
C -3.8073815539 -0.6197346636 -0.3867770045
Cl -4.8226044666 -1.8690508342 -1.0353077277
C -0.1369295597 0.0423610833 0.0025766753
C 0.4402249226 -1.1221668135 0.4993371394
C 1.8118151051 -1.2958529287 0.4402653049
C 2.6293780839 -0.3180326035 -0.1207516879
C 2.0412267959 0.837635737 -0.6285177459
C 0.6709265274 1.0199978908 -0.5693906598
Cl 3.0373704292 2.0559750487 -1.339759807
Cl 4.3413593467 -0.5353983694 -0.1884523188
Cl 2.5227292737 -2.7375081949 1.0702723516
Cl -1.1935664092 2.5876654372 1.3540882218
H -5.4539377904 0.6209545843 0.2000540355
H -3.9911043884 2.3781434826 1.1372461155
H -1.9977561128 -1.6521864394 -0.877561035
H -0.1727209178 -1.8862747085 0.9481479523
H 0.2395565215 1.9165278118 -0.9828636037
*
