! r2scan-3c def2/J RI DEFGRID2 scfconv6 printgap
%output
    printlevel normal
end
%cpcm
    smd true
    smdsolvent "water"
end
* xyz 0 1
C 2.0903610133 2.7288066994 0.9715688653
C 2.1697594151 1.703375305 -0.1569099399
C 3.0087977264 0.4637812524 0.2441033909
C 2.0129416636 -0.653333916 0.1813162514
C 2.1399943106 -2.0001677652 0.4375839989
C 1.0224765275 -2.8143793322 0.3054296614
C -0.1964549942 -2.2852520057 -0.0799575541
C -0.3270389454 -0.9280818001 -0.3445468404
C 0.7859170126 -0.1123606283 -0.2018281186
O 0.8165423357 1.2215581149 -0.4072733798
O -1.5408964239 -0.3804052815 -0.7766619373
C -2.5482652242 -0.2944889215 0.1330643183
O -2.4470454655 -0.660057407 1.2904732373
N -3.635668558 0.2347823461 -0.4320894652
C -4.8643069348 0.4770552308 0.2896881597
C 2.6762999322 2.3432883371 -1.4473173079
H 1.4319232238 3.5439643036 0.683578602
H 1.6889658564 2.263019948 1.8689347398
H 3.0789368025 3.1247611102 1.1825963272
H 3.8330530156 0.3001903807 -0.450548169
H 3.4220916052 0.5712986773 1.2472483712
H 3.0888836819 -2.4135443095 0.7393402236
H 1.099207073 -3.8705768363 0.5061901634
H -1.066987424 -2.9154357492 -0.1750247936
H -3.5745868423 0.5119167191 -1.4000644061
H -5.0905514494 1.5426308129 0.3045144697
H -4.7269694675 0.1215281127 1.3089202853
H -5.6856294696 -0.0648375162 -0.1773319922
H 3.6781134164 2.7337180947 -1.2973354756
H 2.0157955996 3.1550345511 -1.7397550523
H 2.6920241274 1.6059118291 -2.2464543359
*
