  14
        -19.32224706
 C         -1.8539872165        0.0000010480       -0.0054017261
 C         -1.1536176330       -1.1955686363       -0.0012113053
 C          0.2266503426       -1.2004907891        0.0084477458
 C          0.9423028082       -0.0000007901        0.0118349678
 C          0.2266532792        1.2004916585        0.0084381169
 C         -1.1536215422        1.1955675604       -0.0011998997
 N          2.3159439984       -0.0000017869       -0.0511889406
 H         -2.9335042329        0.0000012944       -0.0104824332
 H         -1.6895172842       -2.1339379128       -0.0023350274
 H          0.7655563367       -2.1371632733        0.0118712500
 H          0.7655570179        2.1371639850        0.0119173345
 H         -1.6895161056        2.1339318057       -0.0023621577
 H          2.7768434583       -0.8501353906        0.2268378492
 H          2.7768392203        0.8501637113        0.2267520185
