! r2scan-3c def2/J RI DEFGRID2 scfconv6 printgap
%output
    printlevel normal
end
%cpcm
    smd true
    smdsolvent "water"
end
* xyz 0 1
C -3.6979085929 -0.010143867 1.6263202105
N -2.5061368221 0.0878016154 0.812356285
C -2.4575929145 -0.3421250574 -0.4535537257
O -3.3909940693 -0.8507938655 -1.0493427737
O -1.2759755515 -0.2222022944 -1.1012123278
C -0.2056575597 0.4962407973 -0.5583866072
C -0.2771046418 1.8582572678 -0.4115719508
C 0.8303311692 2.5705785611 0.0724300144
C 1.9848987158 1.9173359485 0.4009815447
C 2.0886931186 0.5178222721 0.2555536994
C 0.9765484752 -0.2167551731 -0.235727033
C 1.0803300341 -1.6151760706 -0.3839336442
C 2.2389691759 -2.2619289712 -0.0555871194
C 3.3404164467 -1.5408868319 0.4323704238
C 3.267878452 -0.1842412193 0.583620392
H -3.5147801575 -0.655399434 2.4845718698
H -4.4873213743 -0.4382292407 1.0120765125
H -3.9967362619 0.9796399414 1.9685224144
H -1.672913582 0.4616637366 1.2433500402
H -1.1855671272 2.3766388754 -0.6786691683
H 0.7547227557 3.6409749953 0.1778087687
H 2.8375641191 2.4635649605 0.7735107054
H 0.2280891643 -2.1569055614 -0.7672957591
H 2.3127126576 -3.3323516886 -0.1711287543
H 4.2464377474 -2.0696127755 0.685580654
H 4.113599194 0.3737042994 0.9559354244
*
