! pbe def2-sv(p) def2/J RI DEFGRID1 loosescf d4 GCP(DFT/SV(P)) printgap
%output
    printlevel normal
end
* xyz 0 1
C -3.0703572994 -0.3737266298 1.0227105164
C -2.3039121544 -0.2531363745 -0.2936239085
H -3.0264118324 -0.3673164066 -1.1080562625
C -1.2492541619 -1.3496286668 -0.4496834334
C -0.1343587708 -1.2119672786 0.5796637472
C 0.5467393852 0.1698897888 0.5124290635
H 0.3904200408 0.6781697706 1.4730648083
C -0.1283350243 1.0875529494 -0.4831939721
O 0.4916325184 1.8202014233 -1.2321170839
C -1.6335941676 1.1275624102 -0.4335003132
C 2.0713874553 0.120066633 0.2858485641
C 2.781712851 -0.5149979381 1.4791629586
C 2.4503252798 -0.5879455656 -1.013842856
H -3.4950123207 -1.3697667524 1.1215531659
H -2.4231916103 -0.1871107785 1.8750185387
H -3.8837816436 0.3473457209 1.0480994305
H -1.7198754166 -2.3287394135 -0.3484666096
H -0.8204247651 -1.2825726024 -1.4532759816
H -0.5376385046 -1.3825596165 1.5769506904
H 0.6050435081 -1.9900994313 0.3976511303
H -1.8894614671 1.7526527025 0.4254580021
H -1.9783299739 1.6523497736 -1.326099317
H 2.4048241264 1.161193829 0.1985537756
H 3.8582587894 -0.4778855167 1.3331749911
H 2.4908166457 -1.5553894726 1.5977792918
H 2.542819122 0.0172459806 2.3968918498
H 1.9637676866 -0.1073743073 -1.8594037836
H 2.1685262745 -1.6375321403 -0.9971426117
H 3.5255617315 -0.5290335531 -1.1645063434
*
