! pbe def2-sv(p) def2/J RI DEFGRID1 loosescf d4 GCP(DFT/SV(P)) printgap
%output
    printlevel normal
end
* xyz 0 1
C -2.4293607968 0.1142354608 -1.4090861262
C -2.0474286962 0.4694984905 0.0343003636
H -2.9819403718 0.655784871 0.5766503577
C -1.152844979 1.702050815 0.1271746744
C 0.2560483635 1.4866127778 -0.4438071575
C 0.7640182192 0.0465328085 -0.2750222417
H 0.456012303 -0.5461731742 -1.146992665
C 0.0836434674 -0.5913305574 0.9479394271
C -1.3917730333 -0.7211585534 0.6958425967
O -2.0172308336 -1.7248512071 0.984302129
C 2.2750811948 -0.0698559789 -0.2274924517
C 3.1020877284 0.9035166305 -0.5774940732
C 2.8157692958 -1.4158227571 0.164901242
H -1.5465158778 -0.0312228776 -2.0241702753
H -3.0161803426 -0.8016253373 -1.4207902125
H -3.0229889479 0.9166115941 -1.8385218737
H -1.6303427583 2.531662211 -0.3952513072
H -1.0765255157 1.9839379637 1.1790557062
H 0.2759122612 1.7492049991 -1.501542057
H 0.9271169557 2.1681950027 0.0787785716
H 0.477122498 -1.5809236027 1.1747063718
H 0.2331345972 0.0464760051 1.8217090052
H 4.1682042606 0.7506701069 -0.5669426759
H 2.7786481799 1.8786926606 -0.891356049
H 2.2461025793 -2.2137391507 -0.3076518354
H 3.8565059028 -1.5069569155 -0.1337435192
H 2.7635288825 -1.551673138 1.2441343453
*
