! wb97x-v def2-tzvp def2/J RIJCOSX DEFGRID2 scfconv7 GCP(DFT/TZ) printgap
%output
    printlevel normal
end
* xyz 0 1
C 2.0722982104720935 0.01544996254833836 -0.11113447025268251
C 0.7590292781082629 0.6842485314478105 0.28197482249851624
C -0.47037292173619605 0.028784670760569373 -0.3405062318511931
H -0.3436346045711065 -0.011019029177328634 -1.429718676342909
C -1.7511885503501978 0.7751162855921886 -0.0020965326281977225
O -0.5765137963679503 -1.3604077885060182 0.057607286870998704
H 2.2015520415956082 0.019358041757001874 -1.1993682899174478
H 2.108694624358744 -1.0240962107860048 0.22828517658621808
H 2.9260906317589663 0.5397830341339395 0.3294036732581287
H 0.7721876500498932 1.7372517790891828 -0.024746481243286177
H 0.6389691023551373 0.6760733888518552 1.3746383326348584
H -2.616478250939486 0.291706624753139 -0.46555110565535396
H -1.903783798792761 0.7970032354495757 1.083624293869619
H -1.7006585717305625 1.8082849828167225 -0.3607872469967845
H -0.6627402375467445 -1.3681890530980432 1.0212967346047628
*
