! pbe def2-sv(p) def2/J RI DEFGRID1 loosescf d4 GCP(DFT/SV(P)) printgap
%output
    printlevel normal
end
* xyz 0 1
C -1.8219487292 -0.8566222946 -0.8751175478
C -1.3377418929 -0.1256985574 0.3962724485
H -2.1699654845 -0.0514862411 1.104510495
C -0.8453836401 1.3082863695 0.0795604668
H -1.1428111089 1.5906943449 -0.9354685691
C 0.6890565696 1.3713778299 0.1515011949
H 0.9998927066 1.4773422826 1.204462229
C 1.3070929291 0.0713621232 -0.381382121
H 0.9734459637 -0.0931899115 -1.4157954043
C 0.8590699414 -1.1105223466 0.5073815152
H 1.5849858994 -1.2130119489 1.3283540398
O -0.3708228139 -0.8736053741 1.1300423502
O 0.8824724155 -2.3178641167 -0.1978516338
O 2.7046097096 0.2334157268 -0.3494927707
O 1.1208358774 2.4800202088 -0.591740782
O -1.4594203263 2.2605261937 0.9054026064
O -1.8804459037 -2.2525127768 -0.7036413447
H -1.1296307956 -0.6918062663 -1.7028681287
H -2.7986439209 -0.4496876322 -1.1569131613
H -0.0259682655 -2.5406919438 -0.488792969
H 3.1312665317 -0.5599667808 -0.7024320273
H 2.0882188647 2.4427871237 -0.6548629758
H -1.1290550228 2.1778974086 1.8122204548
H -2.5090880164 -2.4712569627 -0.0003423772
*
