  19
        -26.29599677
 C         -3.1853488760        0.0043684794        0.8406920443
 C         -2.4801214939       -0.0077575186       -0.5175629929
 C         -0.9880653134       -0.0045491829       -0.3398836921
 C         -0.2864099866        1.1905401708       -0.2341305316
 C          1.0789423752        1.2016982756       -0.0305049471
 C          1.7770563147        0.0026762519        0.0749826224
 C          1.0864211927       -1.1983320731       -0.0266426107
 C         -0.2815854397       -1.1941182817       -0.2304854512
 O          3.1246640600        0.0579323323        0.2737858792
 H         -2.9030943166        0.8906339259        1.4042356901
 H         -2.9042468701       -0.8721630926        1.4197822736
 H         -4.2643849665        0.0038869709        0.7085033100
 H         -2.7846272530        0.8714981767       -1.0880190416
 H         -2.7836585148       -0.8976082147       -1.0719279263
 H         -0.8159349739        2.1285044524       -0.3155462865
 H          1.6260961596        2.1281610562        0.0487738540
 H          1.6171485228       -2.1364851799        0.0523546778
 H         -0.8065200281       -2.1351245711       -0.3086613277
 H          3.4950182377       -0.8356896743        0.3283158695
  19
        -26.29392561
 C         -3.3192774143        0.7657313672       -0.1217840570
 C         -2.4710797884       -0.4832849853        0.0919076594
 C         -0.9812922625       -0.2587200930        0.0491386091
 C         -0.3957591350        0.9800979117        0.2650524411
 C          0.9793225851        1.1386955117        0.2323050813
 C          1.8035953144        0.0501745953       -0.0149785310
 C          1.2296683238       -1.1994168428       -0.2293203119
 C         -0.1418872539       -1.3421619539       -0.1973881980
 O          3.1628774554        0.1523015534       -0.0586293034
 H         -4.3676488833        0.4881256039       -0.1998824062
 H         -3.0282206469        1.2729603405       -1.0387072129
 H         -3.2165367742        1.4577032676        0.7099782824
 H         -2.7259488855       -1.2222116759       -0.6717590623
 H         -2.7251181477       -0.9250542601        1.0608403745
 H         -1.0081544284        1.8454349694        0.4613640597
 H          1.4095742340        2.1158450861        0.4005022038
 H          1.8761673252       -2.0415299859       -0.4211832529
 H         -0.5725852553       -2.3183528768       -0.3675311986
 H          3.4373858544        1.0670518754        0.1040973312
