! r2scan-3c def2/J RI DEFGRID2 scfconv6 printgap
%output
    printlevel normal
end
* xyz 0 1
C 2.3563806893 -0.6691786021 0.2164971432
C 0.857304962 -0.5068396602 0.4597100861
H 0.6514532751 -0.8615571904 1.4778465901
C 0.0343602081 -1.3646994948 -0.5014093598
C -1.4456855153 -1.2981622114 -0.1373035241
C -1.9341284658 0.1461297478 -0.1727275829
C -1.0937113328 1.0233419664 0.7522128086
C 0.400711497 0.9627693643 0.4075056854
H 0.9425611083 1.4928533674 1.1997556387
C 0.6971342284 1.6670538591 -0.9263869923
H 2.6228660643 -0.4303523364 -0.8098246405
H 2.9209016783 -0.0163180383 0.8784585808
H 2.6555941022 -1.697148804 0.4094074177
H 0.173808047 -1.0127327461 -1.5250235234
H 0.3811171806 -2.3994726058 -0.4547471165
H -2.0296830632 -1.9058046187 -0.8316930181
H -1.5891614924 -1.7056136253 0.8666258493
H -1.8729148598 0.5178656659 -1.1971224987
H -2.9813612727 0.1933951852 0.1334558999
H -1.4389646084 2.0580484549 0.6971775263
H -1.2322122584 0.6824303732 1.7814860662
H 1.258115455 2.5830395119 -0.759487458
H -0.2214416536 1.9329941382 -1.4419519545
H 1.2803151725 1.0401024122 -1.5933863289
*
