! wb97x-v def2-tzvp def2/J RIJCOSX DEFGRID2 scfconv7 GCP(DFT/TZ) printgap
%output
    printlevel normal
end
%cpcm
    smd true
    smdsolvent "water"
end
* xyz 0 1
C -0.17477345487047433 -2.339489605852941 0.22091247960244506
C 0.5032041685621766 -1.006581242504455 0.11914056394883364
C 1.899982812641665 -0.9469403858823268 0.18176137787027977
C 2.596421263484234 0.25087567208303374 0.07620838510039102
C 1.9128443682317224 1.4490199429343276 -0.12148695454125123
C 0.5320977804463864 1.4334365615810611 -0.2170471855090058
C -0.1479075486107246 0.22244827818945823 -0.08383531263639478
N -1.606539551742722 0.2907206613177928 -0.1711705277075869
O -2.2734100737040714 -0.5528789834771938 0.4257894719131438
O -2.1063089325779907 1.2030331811085468 -0.8326505655805331
H 0.5697413377386082 -3.130976295166301 0.11465680460264943
H -0.6703734188127045 -2.4595103865523407 1.1885443136575153
H -0.9393425987241472 -2.4694732840375564 -0.549779575006561
H 2.4472088388745794 -1.8748900146171141 0.3144400975783835
H 3.6793989963659666 0.247959141422161 0.14356355059277312
H 2.450329946154409 2.38722561878576 -0.20181903453493374
H -0.02719315698317406 2.348359505175886 -0.36841124752171744
*
