  17
        -22.49885131
 C          2.8861345065       -0.0615107617       -0.0006882514
 C          1.3916679706       -0.0042038403        0.0004055217
 C          0.7126363006        1.2128380853        0.0003732739
 C         -0.6677883232        1.2220996612        0.0002059355
 C         -1.3550777273        0.0083573978        0.0000737861
 N         -0.7135292724       -1.1536888808        0.0002585444
 C          0.6107022099       -1.1517336832        0.0004114839
 C         -2.8510089157       -0.0340665068       -0.0005615968
 H          3.2801811228        0.4253892546       -0.8912607414
 H          3.2835913985        0.4595452883        0.8686235003
 H          3.2318045178       -1.0913953343        0.0180448558
 H          1.2680447121        2.1401054289        0.0004954036
 H         -1.2163532446        2.1516209788        0.0002518497
 H          1.0697571122       -2.1329061090        0.0007222532
 H         -3.1871903676       -1.0658331954        0.0071555082
 H         -3.2411637487        0.4791843601        0.8759529136
 H         -3.2395413546        0.4647290894       -0.8862020430
  17
        -22.49875679
 C          2.8858447950       -0.0725785495        0.0068241248
 C          1.3920553369        0.0038731339       -0.0038627427
 C          0.7115517478        1.2172908408       -0.0033704975
 C         -0.6707078258        1.2233244329       -0.0016326974
 C         -1.3552013076        0.0098121692        0.0000394385
 N         -0.7105468799       -1.1523197520       -0.0018483778
 C          0.6118744639       -1.1471478617       -0.0038917035
 C         -2.8510531929       -0.0371703643        0.0040788719
 H          3.2338231170       -0.4265277830        0.9765043944
 H          3.2364371198       -0.7722393430       -0.7488429164
 H          3.3228045721        0.9042795175       -0.1826898967
 H          1.2620908955        2.1476117998       -0.0053273354
 H         -1.2202340171        2.1522614762       -0.0023157614
 H          1.0754970809       -2.1260341295       -0.0073050394
 H         -3.1839704193       -1.0699041438       -0.0114384175
 H         -3.2386249771        0.4524039872        0.8953437502
 H         -3.2455565091        0.4825478776       -0.8666104794
  17
        -22.49842025
 C          2.8863140963       -0.0734376843        0.0135755509
 C          1.3928319149        0.0045286469       -0.0055851871
 C          0.7139689400        1.2173923292       -0.0064328858
 C         -0.6698105271        1.2255397516       -0.0051988514
 C         -1.3565468120        0.0151544037       -0.0017970167
 N         -0.7108383274       -1.1488907733       -0.0054694610
 C          0.6097256861       -1.1458564878       -0.0078371302
 C         -2.8517693669       -0.0437298785        0.0110787734
 H          3.2306775358       -0.3422723664        1.0116868459
 H          3.2380376788       -0.8358612210       -0.6777152043
 H          3.3254391597        0.8834416965       -0.2559983371
 H          1.2648575443        2.1474981059       -0.0094998554
 H         -1.2135549982        2.1578565326       -0.0074032922
 H          1.0717873092       -2.1255456476       -0.0127708854
 H         -3.1924841268       -0.4952919497        0.9405536302
 H         -3.2786304490        0.9503140538       -0.0813754684
 H         -3.2039824458       -0.6694576633       -0.8052904817
