! r2scan-3c def2/J RI DEFGRID2 scfconv6 printgap
%output
    printlevel normal
end
* xyz 0 1
C 1.2369183099 -0.0097476837 -4.769e-07
S -0.587776575 0.043726365 -1.337e-07
H 1.5693462378 1.0230130546 -2.7132e-05
H 1.5816955911 -0.5141430762 -0.8960376428
H 1.581718831 -0.5140791039 0.8960609774
H -0.7735678474 -1.2696671429 1.37345e-05
*
