! pbe def2-sv(p) def2/J RI DEFGRID1 loosescf d4 GCP(DFT/SV(P)) printgap
%output
    printlevel normal
end
* xyz 0 1
C -2.2381628168 -0.9523419851 -0.376825885
C -1.1608708332 -0.2144630804 0.4387484915
H -1.6141111018 0.1774777499 1.3592602278
C -0.5862628549 0.9506934262 -0.3782991825
H -0.4770508215 0.6544116671 -1.4276995528
C 0.8018103829 1.3269241108 0.159612906
H 0.7415387001 1.5394618138 1.2400911037
C 1.7650352525 0.1494029091 -0.0282748782
H 2.1484162041 0.1964763928 -1.0543631876
C 1.0160954066 -1.1985919024 0.1311488495
H 1.6500791019 -1.8761947598 0.7221260487
O -0.1446774162 -1.0954952853 0.9115096221
O 0.768290275 -1.7082084732 -1.1419507678
O 2.7963583707 0.2734318803 0.9174088423
O 1.3131476652 2.445544719 -0.5195931164
O -1.4407873251 2.0641335562 -0.3921334275
O -2.8282873778 -2.0256947644 0.3088734539
H -1.7863396891 -1.3821034497 -1.272523887
H -2.9902258924 -0.2126584674 -0.6825897742
H 0.4394274561 -2.6183990308 -1.0750827791
H 3.6005899112 -0.1583664037 0.5978872348
H 0.5689789883 3.0302911546 -0.7418572183
H -1.6159140251 2.3572521528 0.515655709
H -3.2368117683 -1.7072256541 1.1260570195
*
