! pbe def2-sv(p) def2/J RI DEFGRID1 loosescf d4 GCP(DFT/SV(P)) printgap
%output
    printlevel normal
end
* xyz 0 1
C -2.5583857738 -0.686378621 -0.3016537644
C -1.1606842731 -0.3130822808 0.2094160093
H -1.1749583706 -0.2309550827 1.3083743542
C -0.702495453 1.0329912776 -0.3688321555
H -0.700561368 0.9519184569 -1.4688333416
C 0.7226006933 1.3298866275 0.1183755429
H 0.6958730039 1.5013708128 1.2013378823
C 1.6711729004 0.1550174811 -0.1635964018
H 1.8464571353 0.0639153038 -1.2474710174
C 1.0490878833 -1.1708244833 0.3048330795
H 1.0413943286 -1.170032096 1.4154774866
O -0.2639571541 -1.3340460811 -0.1780561772
O 1.8081728413 -2.2071676677 -0.193287745
O 2.8848329223 0.3167278103 0.5219382975
O 1.2132257449 2.5299208194 -0.4307272532
O -1.5975218463 2.0323763379 0.0447872225
O -3.1479899458 -1.7453043114 0.4034836064
H -2.4670178232 -1.0298672914 -1.3335502415
H -3.181607063 0.2141224401 -0.2657868999
H 1.3450721295 -3.0470000645 -0.0433104145
H 3.2389033542 1.1992935243 0.3261822948
H 1.2865522979 2.4461316284 -1.3938096058
H -1.1773713598 2.8985697896 -0.0816519095
H -3.3248653652 -1.4713425459 1.3147627941
*
