! pbe def2-sv(p) def2/J RI DEFGRID1 loosescf d4 GCP(DFT/SV(P)) printgap
%output
    printlevel normal
end
* xyz 0 1
C -2.552682408 -0.6705452523 -0.3608736856
C -1.1768239614 -0.3091469617 0.2097788437
H -1.2438475318 -0.2699257847 1.3099569269
C -0.7062746571 1.0616277813 -0.3197745399
H -0.6879866035 1.0359381882 -1.4144143511
C 0.7162216988 1.3280611533 0.1899932246
H 0.6847666146 1.4144891624 1.2929111915
C 1.637656347 0.1533072817 -0.1821873192
H 1.7202978589 0.087782058 -1.2722244232
C 1.0333727196 -1.1645326823 0.3271012862
H 0.996287242 -1.1364543823 1.4409744093
O -0.2755295205 -1.3384301767 -0.163449673
O 1.8109017893 -2.211561972 -0.1166940131
O 2.9394578097 0.3806849257 0.2867160984
O 1.1955683908 2.529839177 -0.3557487127
O -1.6073139168 2.0790437364 0.0158066795
O -3.161667457 -1.7319695934 0.324951802
H -2.4352812236 -0.9011309611 -1.4255370245
H -3.2113999408 0.1923614099 -0.2500714244
H 1.3392750828 -3.0509091655 0.0025375143
H 2.9960568329 0.1987015747 1.2364445748
H 2.1651426836 2.5238143343 -0.3054861114
H -1.5025429547 2.3272702009 0.9461567782
H -2.6346739151 -2.53257788 0.1926183117
*
