! pbe def2-sv(p) def2/J RI DEFGRID1 loosescf d4 GCP(DFT/SV(P)) printgap
%output
    printlevel normal
end
* xyz 0 1
C -2.2169613016 -0.8891700424 -0.1390185072
C -1.1243764707 -0.3326341039 0.7996320175
H -1.5735170201 -0.3122101367 1.800575351
C -0.709452611 1.1196481814 0.4789966825
H -1.5575934047 1.6198964579 -0.0028316347
C 0.5117441669 1.2309620529 -0.4627290062
H 0.8674848862 2.2672140854 -0.3916665794
C 1.6301041477 0.2961343922 0.0204184346
H 2.4328153799 0.2965667963 -0.7301100943
C 1.0785035127 -1.1400567223 0.1169062316
H 1.8202861358 -1.7906497542 0.6119654353
O -0.0318443856 -1.2432297667 0.9588023439
O 0.8491277956 -1.5779856898 -1.1905216963
O 2.0837250657 0.7620888631 1.264739194
O 0.1809210713 1.0061195687 -1.8075724442
O -0.4820643557 1.846706439 1.6633299841
O -1.8881424503 -0.962848835 -1.5007466661
H -3.1183569994 -0.2819045871 0.012739744
H -2.4315893395 -1.9156190054 0.1682572765
H 0.3562505795 -2.4126929426 -1.1883587192
H 2.854867322 0.2545032826 1.5559359527
H 0.3067222019 0.056854982 -2.0019537957
H 0.3775141624 1.5802227873 2.030995569
H -1.7365500679 -0.07202379 -1.8539254533
*
