! pbe def2-sv(p) def2/J RI DEFGRID1 loosescf d4 GCP(DFT/SV(P)) printgap
%output
    printlevel normal
end
* xyz 0 1
C 1.6392361632 -0.5391287802 -1.0527011974
C 0.965178135 -0.4448890901 0.3165520708
H 1.7617063404 -0.4995732188 1.0682472517
C -0.0008563949 -1.6285692078 0.547597231
C -1.4760432949 -1.2336032912 0.4392591684
C -1.6840230547 -0.2622987213 -0.715943636
C -0.9334570303 1.0525225273 -0.4616962538
C 0.2225938253 0.8831335336 0.53324825
H -0.1975156605 0.8406551019 1.5445299046
C 1.1503747271 2.0954528838 0.4848125165
H 0.9142496453 -0.4750841647 -1.8581448134
H 2.3687338769 0.2563731454 -1.1788286617
H 2.1634688442 -1.4888698094 -1.1393577217
H 0.2109242248 -2.4046812613 -0.1899489125
H 0.1740256458 -2.0634412077 1.533629122
H -2.0789056621 -2.1308762663 0.2866197732
H -1.8139929377 -0.7678649888 1.3667732075
H -1.3251399832 -0.7340257625 -1.6324937975
H -2.7488549253 -0.0632328734 -0.8496380854
H -0.5475174818 1.4449134163 -1.403959
H -1.6212078403 1.8001975652 -0.0608297599
H 1.9822886814 1.9680875019 1.1740229908
H 0.6037711759 2.9922205807 0.7685711259
H 1.5482016527 2.2473303599 -0.5151537359
*
