! wb97x-v def2-tzvp def2/J RIJCOSX DEFGRID2 scfconv7 GCP(DFT/TZ) printgap
%output
    printlevel normal
end
%cpcm
    smd true
    smdsolvent "water"
end
* xyz 0 1
C 3.6976895638856466 -0.2812575473778098 0.1205753586640589
C 2.2158110873780874 -0.1837223492883323 0.017742277912809766
C 1.5748356727760462 1.0067768122331267 -0.008664573129814307
C 0.13848690605705458 1.129136188880767 -0.19687403514904336
O -0.39431951164511175 2.2487850652764476 -0.23524058786236032
C -0.6587527613129571 -0.14822713292093975 -0.4201662511497935
H -0.5347384025621499 -0.35235793573501056 -1.4989517027533807
C -0.005726758455439213 -1.308066533599328 0.3388832839924726
C 1.4547016101698476 -1.4697703387883723 -0.06670994651192554
C -2.164101007138753 0.03411583597664493 -0.15415096503745238
C -2.979405326696017 -1.117436223116906 -0.7433179395954523
C -2.4753042181999287 0.21174264577442312 1.3340211663270083
H 4.181531849385052 0.6969091580445739 0.07652769689855637
H 4.088635044950933 -0.915801530028337 -0.6845742019706177
H 3.973435513570507 -0.7762306872328812 1.0605283515553716
H 2.133402991345774 1.9375181597838205 0.06321370563958785
H -0.053412307632904395 -1.1125733758868062 1.4169070743809185
H -0.5505253808170186 -2.2376693795964386 0.15032327922167968
H 1.9555654739497117 -2.2249667694903392 0.5500812341897096
H 1.5257082364493944 -1.83316336225859 -1.1042600283143245
H -2.4626858716545517 0.9522679791255226 -0.6737404509634817
H -2.7570461040315495 -2.0667421171462546 -0.243433912165859
H -2.7771947134529835 -1.2419373237577038 -1.8129289142127354
H -4.051144826039203 -0.926609120827174 -0.6220241339153787
H -1.8564138615541665 0.9926165080561989 1.7890822047871766
H -2.3089367430728323 -0.7187518603237679 1.8878554331870585
H -3.524916453237214 0.49233195727896634 1.471909603677855
*
