! pbe def2-sv(p) def2/J RI DEFGRID1 loosescf d4 GCP(DFT/SV(P)) printgap
%output
    printlevel normal
end
* xyz 0 1
C -2.5084724719 0.9970914581 0.0275857628
C -1.7016751627 -0.2105454317 0.4949903015
C -0.5878234864 -0.6065203386 -0.4871074617
C 0.8369939202 -0.169192641 -0.094833159
C 1.7797528414 -0.5698073023 -1.2367386929
C 0.9146543219 1.3498268415 0.0785460633
C 1.2797873048 -0.8729978023 1.2047968153
H -1.8727930035 1.868656279 -0.0987720306
H -2.9909797307 0.7845533376 -0.9241916244
H -3.2813867401 1.2390898023 0.7542036473
H -1.2770571778 -0.0006532839 1.4773467598
H -2.3886947232 -1.0513430054 0.6153280995
H -0.8221074131 -0.1898524545 -1.4691026883
H -0.5749976786 -1.6934557349 -0.596635166
H 1.7398627285 -1.6433995858 -1.4081839956
H 1.5001070051 -0.0663478837 -2.1598635189
H 2.8048267258 -0.2962725915 -0.9967509053
H 0.5810505094 1.8544625796 -0.8257008669
H 1.941962714 1.6498179828 0.2756233518
H 0.2990100532 1.6816164046 0.9100252777
H 2.135903878 -1.5176336194 1.0227823899
H 1.5647933052 -0.150176135 1.9649502226
H 0.4829912671 -1.4901493114 1.6110045561
*
