! pbe def2-sv(p) def2/J RI DEFGRID1 loosescf d4 GCP(DFT/SV(P)) printgap
%output
    printlevel normal
end
* xyz 0 1
C -1.6666665496 -1.319093292 -0.6356305758
C -1.1466825368 -0.5024306535 0.556398615
H -1.9172362943 -0.5079131774 1.3350330476
C -0.8757431068 0.9736084455 0.1727108185
H -1.2306560804 1.1559442135 -0.8492690348
C 0.6252621778 1.2777978939 0.1986478109
H 0.927228259 1.4325773096 1.2453212894
C 1.4197720629 0.1004419398 -0.3780429557
H 1.0803825836 -0.0831759255 -1.4070627421
C 1.1661592199 -1.1632412493 0.4614344537
H 1.9455203776 -1.2297564502 1.2365715132
O -0.0346773649 -1.1174428177 1.1890671142
O 1.2214910221 -2.2626977929 -0.3980058504
O 2.7775177884 0.4633158615 -0.3659717683
O 0.8478575645 2.4397979374 -0.5559644672
O -1.499788841 1.8611270135 1.0693352676
O -2.8686568595 -0.7249968259 -1.0668644138
H -1.8340112261 -2.3489427802 -0.2981585661
H -0.9203313801 -1.3260994977 -1.4391109672
H 1.1832357626 -3.0878540956 0.1094087379
H 3.2979633037 -0.1919996364 -0.8522202983
H 1.8043583071 2.5978148635 -0.5887799833
H -2.4433090619 1.9161332772 0.8624912243
H -3.242073046 -1.2469518146 -1.7909340684
*
