! pbe def2-sv(p) def2/J RI DEFGRID1 loosescf d4 GCP(DFT/SV(P)) printgap
%output
    printlevel normal
end
* xyz 0 1
C -1.7769127013 -1.017073358 -0.6846116318
C -1.0492880829 -0.4742971485 0.5593951972
H -1.7115731718 -0.5747019941 1.4290474267
C -0.7054624135 1.0163859565 0.41697452
H -1.561222787 1.511838627 -0.0539843065
C 0.5351937979 1.2455182665 -0.4679875609
H 0.8363292339 2.2962818496 -0.3135254713
C 1.6926525719 0.3436913106 0.0079668959
H 2.4885018399 0.3397564921 -0.7495857763
C 1.2467350269 -1.1199271751 0.1616754474
H 2.0068392348 -1.6323453549 0.7740299325
O 0.0762189951 -1.2730526583 0.9168159172
O 1.1631068168 -1.6782907231 -1.1107986131
O 2.1813070806 0.7596490037 1.2615064359
O 0.1909441132 1.0306363892 -1.8095135437
O -0.5333420198 1.6270569084 1.6727123283
O -3.0513157597 -0.4456905565 -0.8404151111
H -1.8430160587 -2.1088022086 -0.5963753583
H -1.2168992557 -0.760705797 -1.5850035864
H 0.9985362468 -2.6305315066 -1.0455888873
H 2.6864846781 1.5801323773 1.1619173731
H 0.9502753786 1.2138116108 -2.3813217789
H 0.2367798987 1.2217070695 2.1069440013
H -3.6181152613 -0.7108643517 -0.101595128
*
