! wb97x-v def2-tzvp def2/J RIJCOSX DEFGRID2 scfconv7 GCP(DFT/TZ) printgap
%output
    printlevel normal
end
* xyz 0 1
C -1.5818424151611536 -0.1405520339558471 -0.511676702840741
C -0.6615396482619346 0.4833966804068327 0.5342961703284935
C 0.6947456690047961 -0.21387070581494128 0.644288024566611
N 1.5496978150503817 -0.14285116773988013 -0.5564387203155572
H -2.5533496742928476 0.363166537935534 -0.5339471303423103
H -1.1564741833794214 -0.07254862304327045 -1.5187253130885274
H -1.7583985538998228 -1.2000242261232459 -0.29285213812519745
H -1.1496438582391406 0.44775899639125394 1.5172441449629337
H -0.4977647238211407 1.5449253413725597 0.30327173062359697
H 1.2531138360123053 0.2184795603714765 1.482664526034144
H 0.5376492155030026 -1.2724707741202377 0.8866800763708725
H 1.6452793541134354 0.8374771957725458 -0.8112655252120884
H 1.0445808127548013 -0.5620504986473251 -1.3320925260122392
*
