! wb97x-v def2-tzvp def2/J RIJCOSX DEFGRID2 scfconv7 GCP(DFT/TZ) printgap
%output
    printlevel normal
end
* xyz 0 1
C 2.2040331505546504 1.0356488548349623 -0.406558207566986
C 1.1865469133569053 -0.07436427840748824 -0.2643111575367573
C 1.5847622402401784 -1.123845475729332 0.7539537471847402
O -0.05771494750265278 0.5816623429068212 0.1846716395040377
C -1.223221618848522 -0.035844676729983455 -0.080117362090758
O -1.3086932010217267 -1.089020493104087 -0.6925614840052529
C -2.3841435023281385 0.7269615497333913 0.4752679304414067
H 3.1495422288015367 0.6138742315656356 -0.7595587107674995
H 1.8698294173261054 1.7847238467305906 -1.1297175090753553
H 2.3827648040729783 1.5244397449654978 0.5565096752556904
H 0.9798925082739213 -0.5342037357911992 -1.2349384318992205
H 1.7659047135213835 -0.6595333856659611 1.7287323009438247
H 2.50788532256131 -1.6124486350050729 0.4275433645691217
H 0.8117758881389948 -1.8894013162909513 0.8619954256112982
H -3.3187722235697 0.2780892918858085 0.14085213965405907
H -2.333752096749212 1.7744493707669344 0.1667559901669002
H -2.3370337619863673 0.7029128840438752 1.5689490902483083
*
