  16
        -19.88405714
 C         -1.3377945222        0.7772433929       -0.4103311206
 C         -1.5392809664       -0.6680707024        0.0377071624
 C         -0.1230421300       -1.2403226329        0.0236758209
 C          0.7967800004       -0.0739215846        0.4451919748
 C         -0.0739991331        1.1998423708        0.3395277702
 O          1.9828872078       -0.0033531052       -0.3185076890
 H         -2.1886943365        1.4128680100       -0.1730254114
 H         -1.1739106115        0.8115905448       -1.4882880750
 H         -1.9398551077       -0.6878936890        1.0518714215
 H         -2.2141388056       -1.2215702591       -0.6125924155
 H         -0.0114428040       -2.1022960823        0.6780811172
 H          0.1455952792       -1.5504317292       -0.9878719765
 H          1.1570378196       -0.2092310438        1.4689677349
 H         -0.3326449596        1.5483022632        1.3388448147
 H          0.4721362634        1.9968508287       -0.1633296081
 H          1.7482707972        0.1173534397       -1.2496958605
  16
        -19.88287601
 C         -1.5013743566        0.7544213832        0.0815179136
 C         -1.3908844263       -0.6710935019       -0.4523095518
 C         -0.1339277464       -1.2107553281        0.2331264314
 C          0.7830948428        0.0086164629        0.4583803819
 C         -0.0544711189        1.2391534967        0.0535152526
 O          1.9515950697       -0.1455160973       -0.3259836136
 H         -1.8713385000        0.7402816948        1.1078080492
 H         -2.1601137811        1.3801868022       -0.5178937533
 H         -2.2696605236       -1.2742227247       -0.2326325545
 H         -1.2463529474       -0.6475926539       -1.5329297197
 H         -0.3861302248       -1.6675486602        1.1891236381
 H          0.3893436708       -1.9471293769       -0.3743801120
 H          1.0724384255        0.0722249793        1.5177728960
 H          0.1171468619        2.0915194643        0.7089194329
 H          0.2192333063        1.5169557955       -0.9659468791
 H          2.5355494950        0.6111420462       -0.1848290315
  16
        -19.88280803
 C         -1.4751016376        0.7739305637        0.0006499365
 C         -1.3315302334       -0.6574447873       -0.5070492518
 C         -0.1811954203       -1.2018052480        0.3372997574
 C          0.7953537688       -0.0166543355        0.4888246822
 C         -0.0272207092        1.2417789090        0.1504409510
 O          1.8864272287       -0.0771066127       -0.4125321207
 H         -1.9706802763        0.7728213494        0.9726876678
 H         -2.0429181029        1.4081599904       -0.6772241048
 H         -2.2436020740       -1.2408886977       -0.3951042507
 H         -1.0458006453       -0.6484803136       -1.5595916525
 H         -0.5478794465       -1.4978562685        1.3203635972
 H          0.3036219947       -2.0595728284       -0.1262932962
 H          1.1865490889        0.0306867767        1.5154282541
 H          0.0867016509        2.0176843449        0.9043170954
 H          0.3508208913        1.6257008152       -0.7977884194
 H          2.4298280679       -0.8503025342       -0.2111636948
