! pbe def2-sv(p) def2/J RI DEFGRID1 loosescf d4 GCP(DFT/SV(P)) printgap
%output
    printlevel normal
end
* xyz 0 1
C -2.6409524482 -0.1962871144 1.1446838604
C -1.7435974373 0.0013953826 -0.0406633941
O -2.1580966079 -0.0247848434 -1.1833954341
C -0.2802726616 0.2107729549 0.2883310001
C 0.4025648664 1.1465808536 -0.7209611413
C 1.8844843434 0.8071543229 -0.9098365343
C 2.4779105134 0.297441283 0.3990888283
C 1.8444531226 -1.0461131374 0.7818401388
C 0.4083132117 -1.1634380792 0.2593030587
H -2.7784947197 0.7681402759 1.630341722
H -3.6093096543 -0.5753853824 0.8302581919
H -2.1821050598 -0.8707080671 1.8617339229
H -0.1995915844 0.6108204651 1.301508332
H -0.1202503095 1.0684839572 -1.6772335606
H 0.2995318349 2.175568895 -0.3712939067
H 2.0027609185 0.0410163448 -1.6775633398
H 2.4195438241 1.6954345691 -1.2477676576
H 3.558360919 0.1838224547 0.3046297488
H 2.2921726763 1.0374684818 1.1794342918
H 2.432572134 -1.8662682457 0.367783945
H 1.8501516 -1.1520729104 1.8675326607
H 0.4004676841 -1.5264274717 -0.7696725019
H -0.1474088289 -1.8817551983 0.8640123531
*
