! wb97x-v def2-tzvp def2/J RIJCOSX DEFGRID2 scfconv7 GCP(DFT/TZ) printgap
%output
    printlevel normal
end
%cpcm
    smd true
    smdsolvent "water"
end
* xyz 0 1
C 2.844441081635316 -0.769162985852056 0.1375934407659236
C 1.987985219773852 0.4650717638424865 -0.11652168301662924
C 0.4950049243004104 0.25541503436019003 -0.05840525422481019
C -0.3705192736461247 1.337728793042722 -0.24481593998615347
C -1.7417656624282953 1.139231596234453 -0.19151723196599613
C -2.220444716045622 -0.14450771300249146 0.04875594128585599
N -1.4193804046985419 -1.2008177822511354 0.23145915235944123
C -0.09312284455775607 -0.9870913750767624 0.17572742235224537
H 2.657376398293466 -1.1917540688692716 1.130211278680543
H 3.903837094811892 -0.5034315491112474 0.08194627837297465
H 2.6574917690998716 -1.551291136046074 -0.6053864079337301
H 2.232687682684729 0.8849486714033208 -1.1006263014563828
H 2.2472510472299603 1.2473136744721751 0.6080789936405543
H 0.03636496480314633 2.328679709385959 -0.42980199843939526
H -2.4337377078804505 1.9628833842618525 -0.3327480690898839
H -3.29099026800009 -0.33172279265738996 0.0960975303220639
H 0.5275260163414864 -1.8656743060852756 0.32900291407325133
*
