! r2scan-3c def2/J RI DEFGRID2 scfconv6 printgap
%output
    printlevel normal
end
%cpcm
    smd true
    smdsolvent "water"
end
* xyz 0 1
C -2.5554643956 -0.8909634717 0.3131637437
C -1.1209171758 -0.4453888424 0.6368829819
H -0.9821933877 -0.4095333102 1.7300070718
C -0.8241193839 0.9398347178 0.0414561414
H -1.0844225717 0.9248226478 -1.0228717115
C 0.6650755913 1.3000193431 0.1840114804
H 0.8985357511 1.4833645647 1.2474605521
C 1.5670360621 0.1585173864 -0.2900254992
H 1.4982242068 0.0856450319 -1.3838554818
C 1.1046063646 -1.1776871901 0.3197940883
H 1.284893786 -1.1370463228 1.4159098775
O -0.2598702572 -1.4252614375 0.0860999116
O 1.8364698131 -2.186305132 -0.2723902286
O 2.8803712712 0.4383050242 0.1173744276
O 0.9682885762 2.445194853 -0.5722013409
O -1.6267237233 1.942132154 0.6112426545
O -2.7520991424 -1.0717331257 -1.0632746211
H -3.2512123974 -0.1100521352 0.6240412896
H -2.7708437177 -1.8170349383 0.8599857208
H 1.4789617038 -3.0511141134 -0.0162698903
H 3.4728523688 -0.2356833678 -0.247921455
H 0.2854687121 3.1140157552 -0.4035714691
H -1.4692785333 1.9893752722 1.5664427451
H -2.1034800968 -1.7177422615 -1.3798960814
*
