! pbe def2-sv(p) def2/J RI DEFGRID1 loosescf d4 GCP(DFT/SV(P)) printgap
%output
    printlevel normal
end
* xyz 0 1
C -2.0676867343 -1.1859736912 -0.2753247218
C -1.2713551611 -0.3540067452 0.7395992357
H -1.9092036426 -0.2358389195 1.6220098003
C -0.9363242923 1.0593377688 0.1915986282
H -1.2257602075 1.1312597438 -0.8615653135
C 0.577726904 1.2874916864 0.2772303351
H 0.8754439389 1.3392108305 1.3400594
C 1.2821340856 0.0917857067 -0.3846643211
H 0.8913449254 -0.0215611851 -1.4022941733
C 0.985599921 -1.1926094472 0.418083093
H 1.8093003939 -1.4028224289 1.1127605513
O -0.1313403591 -1.0252101073 1.2650875753
O 0.8892907874 -2.317173238 -0.3851691041
O 2.6544151957 0.3435791817 -0.5444627712
O 0.9189718454 2.4892473381 -0.3641860187
O -1.684233062 2.0525164317 0.8404806368
O -1.3830899481 -1.2609611915 -1.5134277739
H -3.0366254199 -0.69473534 -0.4036530876
H -2.2146440561 -2.1901074402 0.1403023303
H 0.1675831587 -2.1743602133 -1.0327570195
H 3.1076118395 0.3007474576 0.3106181228
H 1.807277443 2.3854945009 -0.74494303
H -1.3195751233 2.221277919 1.7212366764
H -1.9777365367 -1.6317518018 -2.1812567939
*
