! r2scan-3c def2/J RI DEFGRID2 scfconv6 printgap
%output
    printlevel normal
end
* xyz 0 1
C 1.7791987491 0.9102319513 0.6531501103
C 1.2658481778 0.069691714 -0.5098165593
C 1.511271936 -1.4200808733 -0.3030190974
O -0.1324018222 0.3412111209 -0.7796950414
C -1.0810291631 0.0801686021 0.1087510565
O -0.8916141928 -0.3877779159 1.212772077
C -2.4368377225 0.4310890046 -0.4357735316
H 1.5550464737 1.9607252958 0.4839690868
H 1.3108172168 0.594854468 1.5823151975
H 2.8539432606 0.7859080151 0.7380150559
H 1.7400806955 0.3973640266 -1.4412870842
H 1.0414331051 -1.7556280001 0.6183566743
H 2.5793876383 -1.6022556004 -0.2426722945
H 1.1005505136 -1.9866404273 -1.1353329409
H -2.9602453596 -0.491611916 -0.6760286436
H -2.3338465859 1.0366851458 -1.329360643
H -3.0070249487 0.9525068102 0.3273925158
*
