! wb97x-v def2-tzvp def2/J RIJCOSX DEFGRID2 scfconv7 GCP(DFT/TZ) printgap
%output
    printlevel normal
end
%cpcm
    smd true
    smdsolvent "water"
end
* xyz 0 1
C -2.9975717168090097 1.2313266564383258 0.013897324704434307
C -1.7537033641922821 0.3859745215506718 -0.011282002907376212
C -1.832281772099425 -1.0064954898606262 -0.01267000306358114
C -0.6777828413303234 -1.7892019199285787 -0.003566238171342038
C 0.5702108859938164 -1.1875678422999247 0.004084191818346239
C 0.6672824992550173 0.21361221533225735 0.002171820739174932
C -0.48839449294663756 0.9887664705769387 -0.005590859871496113
O 1.950701667867953 0.6989572879228612 0.0029656044172127125
C 2.1153056889752757 2.125651371596446 -0.0029350497778593454
O 1.7028034212498484 -1.9761000453211843 0.007457533244636564
H -3.777898226123736 0.8053564734788461 -0.6238598107533119
H -3.4082160784744473 1.2968886859768516 1.0286344949391872
H -2.791568510661089 2.250005985646779 -0.3250890785263897
H -2.8038130084690422 -1.4919024110794654 -0.02078587068037367
H -0.7378058513601656 -2.8732166683524842 -0.006917136303718689
H -0.41737827137778627 2.070704974564488 -0.008699907164514084
H 1.6719681277094562 2.5655181244476277 -0.9030456296124764
H 3.191941500712723 2.297837795366953 -0.002158230257488715
H 1.669334937876922 2.573313594632394 0.8920097674877744
H 2.4771615478280724 -1.3937258947736795 0.009836075623522835
*
