! r2scan-3c def2/J RI DEFGRID2 scfconv6 printgap
%output
    printlevel normal
end
* xyz 0 1
C 2.3976939571 -0.6535274647 -0.1634535011
C 1.0972576501 -0.1192546091 0.4217541784
H 1.1447282619 -0.1732771557 1.5216887888
C 0.7619598295 1.3104992799 -0.0187956778
C -0.7622544097 1.3105647601 0.0186413762
C -1.0983452301 -0.1189931518 -0.4222928471
H -1.1496190709 -0.1720942527 -1.5220455739
O 0.0003620251 -0.9325800491 -0.0028266286
C -2.3967262138 -0.6541593815 0.1668453409
H 2.351652614 -0.6344866429 -1.2494215996
H 3.2296691178 -0.0423420059 0.1737386734
H 2.5516978968 -1.6796811017 0.1580202556
H 1.2074949195 2.0535949768 0.6371696376
H 1.116877742 1.4724849413 -1.0375023847
H -1.1170391938 1.4725021031 1.0373919413
H -1.2076564201 2.0539395015 -0.637071048
H -3.2298945091 -0.0426108571 -0.1665433651
H -2.3468594143 -0.6365559861 1.2526507165
H -2.5518601807 -1.6798656031 -0.1553681935
*
