! r2scan-3c def2/J RI DEFGRID2 scfconv6 printgap
%output
    printlevel normal
end
* xyz 0 1
C -1.6257508082 -0.4984088792 8.808e-07
C -0.6178352283 0.6521379355 -5.5741e-06
C 0.7448228869 0.1584461279 1.45762e-05
C 1.8604277968 -0.2753008911 -4.2942e-06
H -1.4915741887 -1.1207223315 0.8819173688
H -1.4916089715 -1.1207154354 -0.8819257623
H -2.6396470806 -0.1059757584 2.05184e-05
H -0.7645140167 1.2759131464 0.8858433799
H -0.764493194 1.2758466531 -0.8858974487
H 2.8422006396 -0.6437445185 -2.46529e-05
*
