! pbe def2-sv(p) def2/J RI DEFGRID1 loosescf d4 GCP(DFT/SV(P)) printgap
%output
    printlevel normal
end
* xyz 0 1
C -2.46649562 -0.8348188746 0.014392782
C -1.0747551719 -0.5270965074 0.579018377
H -1.0338566321 -0.8420457202 1.6349095916
C -0.7415374497 0.9861265843 0.518904306
H -1.6151957409 1.5170277874 0.124436598
C 0.436572808 1.2270820834 -0.4396109155
H 0.7415510358 2.2782348245 -0.3313854803
C 1.6369188423 0.3513622636 -0.0223044573
H 2.3645545354 0.3299140089 -0.8441881627
C 1.176447871 -1.1082839841 0.2137060879
H 1.266955778 -1.3299427665 1.3019217619
O -0.158408144 -1.3110278193 -0.1688397985
O 1.9777310243 -1.9513883643 -0.5338007109
O 2.1943021585 0.920292731 1.1371435927
O 0.0032200263 0.9509425375 -1.74295241
O -0.4947723521 1.5220058765 1.7929302599
O -2.728701007 -0.1786790172 -1.1983449889
H -3.2280322775 -0.4956028134 0.7189563711
H -2.545193463 -1.9229668991 -0.1130341549
H 1.5346466633 -2.8075716029 -0.6404529082
H 3.0686330642 0.5430799743 1.3104213029
H 0.6683604723 1.2371622266 -2.3849671737
H 0.4390306647 1.3814623117 2.0257657807
H -1.9471226119 -0.253728698 -1.7679383994
*
