! wb97x-v def2-tzvp def2/J RIJCOSX DEFGRID2 scfconv7 GCP(DFT/TZ) printgap
%output
    printlevel normal
end
%cpcm
    smd true
    smdsolvent "water"
end
* xyz 0 1
C 1.768296845470115 0.09733285473104643 -1.5213585583277627
C 3.146701697601615 0.2037178976975842 -1.6221690705665168
C 3.9193727435289234 0.36485123125041247 -0.47562521023219984
C 3.302211709276197 0.42596154995116703 0.7744057074180394
C 1.919813634747128 0.32591029107029945 0.874963892428167
C 1.144269212645177 0.1555956533482988 -0.2721425062602897
C -0.3296607796253714 0.1051360142825436 -0.14198052637805242
C -0.9750507558006027 1.1619904532189858 0.49927931613292686
C -2.35260108183636 1.179519842019998 0.6405048880608976
C -3.133384730926196 0.13451219190680688 0.1415010554631015
C -2.4990113353155246 -0.9421706653057822 -0.49202100980751323
C -1.1058275454723054 -0.9550785057166886 -0.6269428731505884
Cl -0.3361072268152882 -2.3396586807121316 -1.3479579740636314
Cl -3.4472438194369537 -2.261671007091609 -1.0904823948078226
Cl -4.854877226454241 0.1640412314458357 0.30804537807035304
Cl -3.0945148821420005 2.535860913175226 1.4395650066328984
Cl 4.239229238951513 0.6256383146625626 2.233120468871067
Cl 5.651416595026072 0.49570016585582977 -0.631393007571026
H 1.1777644457500138 -0.008489102455951626 -2.424163114398119
H 3.628930062223706 0.1689660081722332 -2.5924944971438513
H 1.448725793843826 0.3714957579223914 1.8506127331213973
H -0.38665616238398987 1.9902933578074482 0.8767461328286663
*
