! wb97x-v def2-tzvp def2/J RIJCOSX DEFGRID2 scfconv7 GCP(DFT/TZ) printgap
%output
    printlevel normal
end
%cpcm
    smd true
    smdsolvent "water"
end
* xyz 0 1
C 1.7242451120237712 1.4864604227518876 0.4319949087414403
C 0.46194469539444966 0.7876746403965021 0.910944700160741
H 0.25875654453607344 1.141245765599354 1.9249006687071262
C 0.460784036409493 -0.7862926070843801 0.9126811263689223
H 0.2570198841438884 -1.137394490425632 1.927383265262896
C 1.7220740144746296 -1.4880262778616133 0.43535501841458224
O 2.784750320312449 -1.2862109076495392 1.4117776712405448
S 3.8076573498886868 -0.0015940336209302323 1.0593346427396069
O 4.7371458268815925 -0.0009959730093343634 2.2042275599176113
O 2.7866164962963396 1.2852668503127238 1.4088942784667216
C -0.7751429589631924 -1.1242346789151703 0.021235130423355904
C -0.46412366350283757 -0.6706386721511842 -1.3990584671061432
C -0.4631892544796029 0.6685031452136857 -1.400482423957117
C -0.7735292531429742 1.1255315338156262 0.01885449269261062
C -1.775410979667208 0.001799945947339821 0.4257797100101614
Cl -3.287119751213893 0.0018777839438613346 -0.5323544275028971
Cl -2.21617759147956 0.003952713657419716 2.1552393833674977
Cl -1.3793652267833985 2.783591221332686 0.18033297483750374
Cl -0.08803687601267841 1.7182378684461286 -2.690351725763341
Cl -0.09045907334204065 -1.723597978233538 -2.6867335185923182
Cl -1.3834033901271163 -2.781059298959368 0.186178448517328
H 1.5679852833822796 2.5673594828213218 0.396766712639208
H 2.055738901650907 1.1570946271426128 -0.5602897599525135
H 1.5641768240189917 -2.568763763952688 0.40259427720305285
H 2.054061754420013 -1.1614613475135718 -0.5576795244557666
*
