! r2scan-3c def2/J RI DEFGRID2 scfconv6 printgap
%output
    printlevel normal
end
* xyz 0 1
C 2.0677058495 0.0307817241 -0.126128333
C 0.7630546935 0.6935778507 0.3005572822
C -0.4591259377 0.0059190177 -0.3232098581
H -0.3246161897 -0.0535410279 -1.4095374853
C -1.7429213408 0.7750018153 -0.009045877
O -0.5591577061 -1.3474536295 0.0860552642
H 2.2220995888 0.1529075637 -1.1957576963
H 2.034881071 -1.0342571775 0.0920543964
H 2.9109003634 0.471137162 0.3994297743
H 0.763773897 1.7415376173 -0.001247301
H 0.6711834948 0.6557391588 1.3888361098
H -2.6014497081 0.2382931706 -0.4050545649
H -1.8635314132 0.8864219715 1.0666209504
H -1.7069491656 1.7618107478 -0.4603575918
H -0.7223995052 -1.3685260714 1.0397091633
*
