! r2scan-3c def2/J RI DEFGRID2 scfconv6 printgap
%output
    printlevel normal
end
%cpcm
    smd true
    smdsolvent "water"
end
* xyz 0 1
C -2.8188109565 -0.2564624627 -0.3630099095
O -1.4004234026 -0.5092039295 -0.4203630942
C -0.6131362152 0.3392892986 0.1621552123
O -0.9045269195 1.3404190537 0.7592770328
C 0.8770103557 -0.0937692628 0.0050628814
F 1.6048262337 0.8843615942 -0.5487524158
F 1.4236566108 -0.3645155413 1.1983038686
F 1.0298168656 -1.180467711 -0.7549649866
H -3.2719961152 -1.0422206303 -0.9585588678
H -3.0336218336 0.7294731358 -0.7729444434
H -3.1559592079 -0.2991576708 0.671789501
*
