! pbe def2-sv(p) def2/J RI DEFGRID1 loosescf d4 GCP(DFT/SV(P)) printgap
%output
    printlevel normal
end
* xyz 0 1
C -2.5621524192 -0.8827586259 0.2612079564
C -1.1310055081 -0.4494588588 0.6131176053
H -1.0219875666 -0.4282285379 1.7093897641
C -0.8333250909 0.9593910012 0.0534742364
H -1.0793048629 0.9782532514 -1.0135132929
C 0.6559776165 1.2877349951 0.2316850015
H 0.8655730923 1.3897984175 1.3135295886
C 1.5225293378 0.1453629427 -0.3271872866
H 1.3490742507 0.0707729266 -1.4066617225
C 1.105272046 -1.1761501474 0.3448206405
H 1.2560154353 -1.0964982586 1.4363802704
O -0.2569701658 -1.4241526946 0.07082249
O 1.8514450816 -2.2596731317 -0.0569456562
O 2.8898415077 0.4286025295 -0.179166649
O 0.9450002263 2.5011202391 -0.4148348539
O -1.6689017298 1.9169627242 0.6439291805
O -2.7407334974 -1.0603436199 -1.1180271637
H -3.2501062915 -0.0913669393 0.5634018868
H -2.7971001627 -1.8058425441 0.8044349452
H 1.7179662366 -2.4315051518 -1.0021010999
H 3.1774164421 0.2497684865 0.7279033662
H 1.904412931 2.5542273916 -0.5529574849
H -1.3674569849 2.1161254253 1.5425317485
H -2.1317949034 -1.7519339286 -1.4151609064
*
