! pbe def2-sv(p) def2/J RI DEFGRID1 loosescf d4 GCP(DFT/SV(P)) printgap
%output
    printlevel normal
end
* xyz 0 1
C -2.2115753593 -1.2056681476 0.0854234359
C -0.8565969924 -0.5715071311 0.4203096622
H -0.8333950229 -0.3093688295 1.4878453031
C -0.6008139961 0.7063367647 -0.3901635134
H -0.6599178311 0.4582503209 -1.4645103251
C 0.8090580496 1.2726541284 -0.1034842111
H 0.6950926725 2.0774982016 0.6300864428
C 1.7399717483 0.201010256 0.4982499867
H 2.7686604529 0.4739195854 0.2259563276
C 1.4122119006 -1.1534912401 -0.1490773613
H 2.0681126232 -1.9437839589 0.2495552865
O 0.1111077311 -1.5845617796 0.1558549888
O 1.6016353962 -1.0097302171 -1.5253102675
O 1.5696256793 0.1694474211 1.8896288303
O 1.3860879183 1.8588033003 -1.238226899
O -1.5345579263 1.7114726398 -0.0844437298
O -3.2460484843 -0.3713855805 0.5537593733
H -2.2393229174 -2.1882811291 0.5691239317
H -2.2810474505 -1.3430834686 -1.0013882405
H 1.4591272432 -1.8592326042 -1.9710761595
H 2.2675179395 -0.3615413135 2.3010755693
H 1.5495964477 1.1623666089 -1.8954423167
H -2.3968643068 1.2963667196 0.0986422656
H -4.1000614263 -0.8047376358 0.4135332383
*
