! r2scan-3c def2/J RI DEFGRID2 scfconv6 printgap
%output
    printlevel normal
end
%cpcm
    smd true
    smdsolvent "water"
end
* xyz 0 1
C -3.6331184578 0.2373294641 -0.0011099984
C -2.1438865489 0.0686193656 0.001048992
C -1.5564100519 -1.1878874572 -0.0002419819
C -0.1791282322 -1.3271748395 -0.0008443803
C 0.6539580212 -0.2173252003 -0.0001838673
C 0.0637678736 1.0418250174 0.0013141968
C -1.3101153056 1.1817166651 0.0018794469
C 2.1542516794 -0.3815713841 -0.0009166051
C 2.7704245433 0.2307055422 1.2592294157
C 2.7696468401 0.2346504871 -1.2595181721
H -4.1330290264 -0.7269300033 0.0338727006
H -3.9486674213 0.8268374981 0.8581765658
H -3.9516985299 0.7628138482 -0.9002503098
H -2.18070727 -2.0703138996 -0.0007090999
H 0.2537586644 -2.3180353305 -0.0017338669
H 0.6825100322 1.9270724662 0.0021889699
H -1.7473249099 2.1702808661 0.0030977571
H 2.3776967688 -1.4545187146 -0.0026805899
H 2.600266053 1.3038576574 1.2891245227
H 3.8429450175 0.0516815341 1.2776811411
H 2.3285651026 -0.211810266 2.1492683509
H 2.5986061063 1.3077524679 -1.2864882564
H 2.327934127 -0.2058171724 -2.1506722835
H 3.8423215628 0.0565737463 -1.2787055296
*
