! wb97x-v def2-tzvp def2/J RIJCOSX DEFGRID2 scfconv7 GCP(DFT/TZ) printgap
%output
    printlevel normal
end
%cpcm
    smd true
    smdsolvent "water"
end
* xyz 0 1
C 1.8561053031295647 0.0700636650454906 0.25590797621589645
C 0.54536597256126 -0.16161850380653256 -0.4582699363405589
O -0.5288858883109588 0.15369648884625198 0.44041607546391154
C -1.798454338822292 -0.044761801394504606 -0.17990679920180686
H 1.9521341486394108 1.1146871692043179 0.56770339005318
H 1.9377973204450205 -0.5693176831945795 1.1403575206244885
H 2.688589771154409 -0.16501531724787968 -0.41415945409651683
H 0.45381459051969286 -1.2105751835570324 -0.7809085084932337
H 0.4681529493195774 0.4737264675483516 -1.3544367754670963
H -1.9120865058898853 0.5990939142380052 -1.0641092388020517
H -2.5655314911417215 0.2146888549220006 0.5537641451821232
H -1.9310837892885222 -1.0928493103902994 -0.4852039119831081
*
