! wb97x-v def2-tzvp def2/J RIJCOSX DEFGRID2 scfconv7 GCP(DFT/TZ) printgap
%output
    printlevel normal
end
* xyz 0 1
C -1.9454094212763644 -0.10243560511734583 -0.013811059261800124
C -0.5600665723619055 0.5378801437660621 -0.024748949404670602
C 0.5504860093749945 -0.5020586752450878 -0.024479940027956375
N 1.8805384657568707 0.14008871545598356 -0.012332150572244427
H -2.082814642001083 -0.729041751419108 0.8743919716517274
H -2.733987477765384 0.6562237913718117 -0.012620779170358273
H -2.091947540753281 -0.7362976971867244 -0.895610618777419
H -0.4445703796741145 1.1843278899276588 0.8559460416640817
H -0.4513637146518906 1.1815818399412765 -0.9065705829079526
H 0.3989166630132897 -1.18171364562424 0.830742706447011
H 0.4725536194114487 -1.1147056188099513 -0.9310122558274345
H 2.5872316189990454 -0.5884153428229378 0.028513988008561555
H 1.9721138790229462 0.6439398097087778 0.866244323585482
*
