! r2scan-3c def2/J RI DEFGRID2 scfconv6 printgap
%output
    printlevel normal
end
%cpcm
    smd true
    smdsolvent "water"
end
* xyz 0 1
C -1.2568075796 -0.7367473321 -0.1281897377
C -0.0024190544 -0.0191627722 0.3683031682
C 1.2631573181 -0.7081388717 -0.1323032188
O 0.0441775332 1.3256641844 -0.0874978747
H -1.2890751659 -0.7108260866 -1.2148916202
H -1.2434882545 -1.7717028172 0.2000035756
H -2.1540897016 -0.2611227034 0.2615459085
H 0.0028109258 -0.0203538118 1.4716201046
H 1.2629281793 -0.7274602517 -1.2189255781
H 1.3125550167 -1.7236053181 0.2477091112
H 2.1371387964 -0.1557849158 0.201960111
H -0.7768640968 1.7738860623 0.1551848555
*
