! pbe def2-sv(p) def2/J RI DEFGRID1 loosescf d4 GCP(DFT/SV(P)) printgap
%output
    printlevel normal
end
* xyz 0 1
C -2.5168057101 1.1355966151 1.130356659
C -1.5049358789 0.5149728043 0.2203796678
C -0.7206551965 1.1881843558 -0.611663722
C 0.2896317889 0.4492291005 -1.4265662731
C 1.0666893312 -0.5255010394 -0.5145752
H 1.6910881124 -1.1507728471 -1.1594781788
C 0.0975298026 -1.4404747982 0.2556887528
C -1.374201844 -0.9896027754 0.2294570579
H -1.8851215085 -1.4070005067 1.1125850465
O -1.9598282442 -1.5667451256 -0.9374045965
C 1.9925155127 0.2698716268 0.3801403268
C 1.6245371362 0.8003996947 1.5355423241
C 3.3808234143 0.4439200906 -0.1595344502
H -2.2791898571 0.9003011093 2.1678482243
H -3.5142473374 0.7482552509 0.9260425274
H -2.5272081256 2.2152704706 1.0094204851
H -0.768400203 2.2640959715 -0.6893647036
H -0.214566254 -0.1368958461 -2.1988635989
H 0.9799864805 1.1392338569 -1.9114509359
H 0.1105692232 -2.4394055525 -0.183245166
H 0.4215444226 -1.5245696887 1.2923339277
H -2.8693075557 -1.2537717226 -1.0239938177
H 2.3103492243 1.3802520665 2.1305902303
H 0.6311213232 0.690389346 1.9327122178
H 3.8831430881 -0.5215953662 -0.2101012717
H 3.3473105007 0.8521051275 -1.1684402891
H 3.9658427638 1.1089970219 0.4694643448
*
