! wb97x-v def2-tzvp def2/J RIJCOSX DEFGRID2 scfconv7 GCP(DFT/TZ) printgap
%output
    printlevel normal
end
%cpcm
    smd true
    smdsolvent "water"
end
* xyz 0 1
C -2.1752891930762353 0.007767411001350187 6.2156467975772424e-06
C -0.879219094811233 0.8153321506977462 2.6155765835128704e-05
C 0.43177451865207794 0.0005556884842006354 -3.761158405045618e-07
C 1.6048591597716788 0.9886336503337041 2.1697975964673744e-05
C 0.5222436526366074 -0.8805684269558908 -1.2519285243149305
C 0.5222551087769752 -0.8806555113050898 1.2518604027410019
H -2.2576530539259982 -0.6308534605490927 0.8855332773077993
H -3.0410570478873273 0.678480334172981 -0.0003370550066061487
H -2.257320880123269 -0.6313280078575885 -0.8852096685211283
H -0.8684292465503639 1.4740923261553305 0.8793911895189468
H -0.8684205766370207 1.4741343183980322 -0.8793059994173225
H 1.5755731975452254 1.6334649301512851 -0.8864679887940429
H 2.563807378845147 0.4576251952914427 -3.727685668892025e-05
H 1.575624488019678 1.6333667936887566 0.8865838189602512
H 0.40956391908292533 -0.28088649119352266 -2.163225035614007
H 1.495121671048058 -1.3836757946502773 -1.2970964902456925
H -0.2514974292802759 -1.655229089627932 -1.2575177088063612
H 1.4949775713476718 -1.384085570191049 1.2967841531427553
H -0.25174268144074324 -1.6550581812802623 1.2575790226319725
H 0.4099754513647483 -0.2809807474034732 2.1632095000445855
*
