! wb97x-v def2-tzvp def2/J RIJCOSX DEFGRID2 scfconv7 GCP(DFT/TZ) printgap
%output
    printlevel normal
end
%cpcm
    smd true
    smdsolvent "water"
end
* xyz 0 1
C -2.630325650199392 -0.5632570565430295 1.0230006884820737
C -1.77297320163599 0.02908898985520044 -0.059812354657443396
O -2.250181571711712 0.28823305637758956 -1.1621830693795272
C -0.3134333821341976 0.25677437460284436 0.2506559960841694
C 0.4318246038862105 0.9799423286310363 -0.8689263701636611
C 1.9029404318121865 1.1888528615323397 -0.5054174091700434
C 2.584975189978196 -0.14117680972886762 -0.18391574533584235
C 1.844616767232216 -0.8768529862239175 0.9326710530416977
C 0.36975523342636524 -1.089412870785557 0.5878454635712292
H -3.6731629606644574 -0.2757314683230473 0.8749653308632097
H -2.567185249293757 -1.6565389814371752 0.9528207797909508
H -2.2874900497491155 -0.2776631378440979 2.020331080183154
H -0.287235661973433 0.8682504120209751 1.1663966786741071
H 0.3649775092711083 0.382061450927796 -1.7871201443065545
H -0.05178242905052315 1.9407546256387695 -1.0776249565501417
H 2.420380236021324 1.6937692445765942 -1.3291078546377015
H 1.97059997471619 1.8512330147892744 0.36877390400561616
H 2.5970499944129877 -0.7689708435214513 -1.0858930885416676
H 3.6295322718248277 0.026223438629650195 0.10314467137585213
H 2.316075234137442 -1.846482851031468 1.1303294628902976
H 1.9121836889801525 -0.29051659807029623 1.8592531837166253
H 0.28435239239679 -1.7521362400619256 -0.28431127677313256
H -0.1428914808741083 -1.5780941249105047 1.4223352857989275
*
