! pbe def2-sv(p) def2/J RI DEFGRID1 loosescf d4 GCP(DFT/SV(P)) printgap
%output
    printlevel normal
end
* xyz 0 1
C -2.4014510252 -0.825746945 0.519006147
C -0.9937908625 -0.2614630033 0.780884983
H -0.9909548005 0.1814640278 1.7868598534
C -0.6395791098 0.8432345387 -0.2143388159
H -0.7034958472 0.4581506943 -1.2408989536
C 0.7935632897 1.3258466517 0.0499090111
H 0.7954177872 1.8321289659 1.0289542401
C 1.7881785932 0.1434307548 0.1209591346
H 2.5075657089 0.2400945941 -0.6985427353
C 1.0750988907 -1.206549815 -0.06536848
H 1.7477150056 -2.003103588 0.2882406042
O -0.0538184116 -1.3392994226 0.765771992
O 0.7825562261 -1.359890626 -1.4164554077
O 2.5417498561 0.1539549335 1.3069282036
O 1.111331505 2.2437661771 -0.9681287804
O -1.5561786356 1.891519851 -0.0187374833
O -2.4687931965 -1.5932671992 -0.6537275426
H -3.0871611098 0.012551944 0.3911970202
H -2.7084213085 -1.4222982803 1.3863639234
H 0.5324185311 -2.2742934503 -1.6165690693
H 1.984544314 -0.110022503 2.0534994455
H 1.9658191435 2.6579419624 -0.78279755
H -1.3211242337 2.6101374704 -0.624768799
H -1.8825800801 -2.3551635941 -0.5395820783
*
