! wb97x-v def2-tzvp def2/J RIJCOSX DEFGRID2 scfconv7 GCP(DFT/TZ) printgap
%output
    printlevel normal
end
%cpcm
    smd true
    smdsolvent "water"
end
* xyz 0 1
C 2.4199871240592663 0.6960062048012639 3.1684358925552776e-05
C 2.3967752539491767 -0.7163987744040224 -7.394808854968044e-05
C 1.2031130721442034 -1.3995038966908329 -5.584422170404875e-05
C -0.023574184618666408 -0.6951936089363535 3.700118200094197e-06
C 0.00010092473447378192 0.7342157855651519 2.6554727684596357e-05
C 1.2446121446919782 1.4085411042017004 5.799405761162808e-05
C -1.238554591860667 1.4139902637570803 2.119525882106129e-05
C -2.401233092137612 0.685969762570311 5.227868222230634e-06
C -2.3224597107553735 -0.7218740449944913 -8.377218114696209e-06
N -1.1916951687052422 -1.4056692047683232 -2.159395819863245e-05
H 3.372677262474949 1.2159009537331058 5.810054140697237e-06
H 3.3336160183064973 -1.264839479922336 -5.7981590619886466e-05
H 1.1779657365959175 -2.484769894271453 -7.437928386895063e-05
H 1.2511992222778185 2.4949766734713528 7.701541031758778e-05
H -1.2513074816841072 2.5002928002692855 6.752202008589288e-05
H -3.3719896248857855 1.1696250003371376 -2.8312183167303085e-06
H -3.241864596116812 -1.3052033895125945 -3.77511483166464e-05
*
