! wb97x-v def2-tzvp def2/J RIJCOSX DEFGRID2 scfconv7 GCP(DFT/TZ) printgap
%output
    printlevel normal
end
%cpcm
    smd true
    smdsolvent "water"
end
* xyz 0 1
C -1.3705145822742648 -0.8924395692637821 0.3843104314957872
C -0.5831659790142766 0.0777408184571127 -0.4966242996019232
C -0.6985752232600704 1.5126285331870704 0.021187957036006767
C 0.8767081611890973 -0.34947581823952406 -0.6445459754252318
O 1.5977045214173433 -0.38321496734363736 0.6038682005444848
H -2.429127837565032 -0.616488220527096 0.4168294553874381
H -0.9927796555182395 -0.8813017972323662 1.4121849452433812
H -1.2991743378629173 -1.9186804866083724 0.0085343467856395
H -1.0008342034815176 0.043570535778057355 -1.5131041283958955
H -1.7439602965015135 1.8374448627608067 0.03145936332974548
H -0.13291577719071723 2.2111589213057576 -0.6054677149831169
H -0.32312527516701084 1.5939385797780776 1.048509306492761
H 0.9285539509016428 -1.369556671757331 -1.0398040706449292
H 1.3902225046680439 0.3169127756670657 -1.3527477606502234
H 1.6676965104259176 0.5252304541012073 0.9229139730459005
*
