! r2scan-3c def2/J RI DEFGRID2 scfconv6 printgap
%output
    printlevel normal
end
%cpcm
    smd true
    smdsolvent "water"
end
* xyz 0 1
C -2.7429404033 0.754539521 -0.3681128356
C -1.956856746 -0.3620734168 0.3066233968
C -0.4686647732 -0.2208489437 0.145377873
C 0.3690224633 -1.3165309971 0.3592724552
C 1.7352233681 -1.1569803584 0.2235362162
C 2.2301800737 0.0920954507 -0.1241863767
C 1.3205043301 1.1177497842 -0.3151616552
N 0.0114716579 0.9719690262 -0.1845944089
H -2.4456535016 1.7173074799 0.0350859912
H -3.8082075314 0.6132234731 -0.2055976282
H -2.5481152014 0.7603933411 -1.4371288828
H -2.2622427097 -1.3321303749 -0.0920205535
H -2.1787411021 -0.365877877 1.3780666101
H -0.0533519049 -2.2730733875 0.6268618277
H 2.4045463077 -1.9895717511 0.3829974636
H 3.2878034608 0.263312648 -0.2440379178
H 1.6473683011 2.1128372243 -0.5882205772
*
