! pbe def2-sv(p) def2/J RI DEFGRID1 loosescf d4 GCP(DFT/SV(P)) printgap
%output
    printlevel normal
end
* xyz 0 1
C -2.4282760995 -0.6500912597 -0.0148924357
C -0.9927779719 -0.251673929 0.3421604689
H -0.9412140723 -0.0128928243 1.4134246152
C -0.5388851979 0.9699092695 -0.4572167186
H -0.5855018549 0.7160325381 -1.5273359991
C 0.9265674316 1.3231869359 -0.1156557527
H 0.9111986363 2.1446399878 0.6126834428
C 1.6689822684 0.1435065115 0.549290742
H 2.7438014911 0.245477133 0.3316507564
C 1.205106971 -1.1743578577 -0.0916004747
H 1.6850480199 -2.0402988778 0.3852449122
O -0.1784554305 -1.3887078414 0.0632925768
O 1.5971229101 -1.2388096639 -1.4280404131
O 1.433526622 0.1997416311 1.9310321072
O 1.5467245629 1.7007057976 -1.3240327618
O -1.4093222616 2.0314321619 -0.1669233847
O -2.9015189185 -1.6970710096 0.7904936894
H -2.4611612907 -0.9340102446 -1.0752566936
H -3.0859562182 0.2029817466 0.1563464758
H 1.4260576826 -0.3945528963 -1.8803645603
H 1.9391282089 -0.4890270252 2.3864247649
H 2.3778209371 2.1657168955 -1.1509521823
H -1.2308948501 2.7690349752 -0.7688757689
H -2.2783203531 -2.4350263597 0.7195576892
*
