! wb97x-v def2-tzvp def2/J RIJCOSX DEFGRID2 scfconv7 GCP(DFT/TZ) printgap
%output
    printlevel normal
end
* xyz 0 1
C -2.545314823713946 -1.0233653602390318 -0.0012149305249107305
C -1.2405764474686929 -0.277765922487017 0.0018722258275033596
C -1.2049739627044047 1.1191625766820237 0.0013895622939032075
C 0.016616304148651482 1.79198064782179 -0.000247697182149396
C 1.2165698076300502 1.0919072378287642 -0.001100964894008621
C 1.1799882871408194 -0.3029613112851185 -0.000190817623941479
C -0.033735660787705346 -0.985147581242034 0.0014546824848621941
O 2.389453519624057 -0.9661389776288531 -0.00035232986071920524
H -2.6467946309852874 -1.6314133573554754 -0.9068728455967016
H -2.6098822529082897 -1.7064248854333643 0.8523746840961142
H -3.392530461880006 -0.3350112692719335 0.04421068463628776
H -2.1347031694934913 1.6798550190511787 0.002576868129052424
H 0.03462465845551977 2.8776584532684373 -0.00030733592060028963
H 2.1718364975945192 1.6063578922056994 -0.0017888454483059107
H -0.03782977317010446 -2.0730209715739747 0.002422698198841285
H 2.2239149544265624 -1.9192846816571196 0.0003023694394771447
*
