! pbe def2-sv(p) def2/J RI DEFGRID1 loosescf d4 GCP(DFT/SV(P)) printgap
%output
    printlevel normal
end
* xyz 0 1
C -2.4756623677 -0.5155782976 -0.2314382801
C -1.0617237185 -0.1958440919 0.2710571199
H -1.0154117439 -0.3492485113 1.3608338562
C -0.6419326516 1.2581016607 -0.050139417
H -1.2519264671 1.6382700284 -0.8811365788
C 0.8445489825 1.3047130092 -0.4755901884
H 1.2096410026 2.322393703 -0.2755740745
C 1.6376511161 0.3216550316 0.3910416047
H 2.6935213831 0.336322077 0.0926104221
C 1.1256912438 -1.1188984536 0.1109175609
H 1.2020639328 -1.6964639509 1.0475311047
O -0.2043873181 -1.1307877409 -0.361659563
O 1.899050259 -1.7744250037 -0.8255641484
O 1.5848951637 0.6425108251 1.7573638195
O 1.0442139119 0.941193607 -1.8143483825
O -0.7580523265 2.0965129551 1.0772333187
O -2.9176485737 -1.7742305528 0.2024879817
H -2.4715385687 -0.4630137549 -1.3275837843
H -3.1896676445 0.2073215916 0.1662145951
H 1.7828881216 -1.3270887056 -1.6815003347
H 0.8295087324 1.2329023508 1.9261256855
H 0.7027477353 1.6288588105 -2.4037395817
H -1.6866619194 2.2088551019 1.324395149
H -2.2830240474 -2.4395422268 -0.1007731826
*
