! pbe def2-sv(p) def2/J RI DEFGRID1 loosescf d4 GCP(DFT/SV(P)) printgap
%output
    printlevel normal
end
* xyz 0 1
C -2.5088707594 -1.0322304423 0.3479324606
C -1.0640625768 -0.5433341319 0.5805496578
H -0.8902788557 -0.4598819219 1.6647782579
C -0.7953838766 0.8200685447 -0.0679439061
H -0.9206364146 0.7055629754 -1.1579534832
C 0.6559770583 1.2451021097 0.2121256297
H 0.7973171235 1.3769115403 1.2914541429
C 1.6060455403 0.1508335802 -0.2803006415
H 1.5324487541 0.0671212731 -1.3769359886
C 1.1789931731 -1.2086189014 0.3091759652
H 1.3350359844 -1.173923526 1.4098103023
O -0.1707033781 -1.5015872419 0.0439931871
O 1.963440484 -2.1837219426 -0.275622644
O 2.9147050639 0.4714693573 0.1073030673
O 0.9118066835 2.5071552892 -0.3487826553
O -1.7114829861 1.7603262848 0.4315013462
O -3.07325166 -0.6136541681 -0.8650439611
H -3.1234328433 -0.7023455852 1.1910832235
H -2.4874157114 -2.1231393087 0.3157724394
H 1.5711438512 -3.0563080858 -0.1172589189
H 3.5064889632 -0.2488492405 -0.15808619
H 1.092587978 2.4226766715 -1.296249239
H -1.3366377435 2.6465655475 0.3007587271
H -3.2731772907 0.3321595132 -0.801873493
*
