! r2scan-3c def2/J RI DEFGRID2 scfconv6 printgap
%output
    printlevel normal
end
%cpcm
    smd true
    smdsolvent "water"
end
* xyz 0 1
C -1.9581315255 -0.1074328709 -0.0286166279
C -0.5770195771 0.5309770227 0.0256657765
C 0.5329699424 -0.5144797072 -0.0251946004
O 1.7824649995 0.1485207823 0.0294006442
H -2.7265235001 0.6593859418 0.009793446
H -2.0804298195 -0.6740979991 -0.9486077898
H -2.0998902721 -0.7816879653 0.8126253297
H -0.462213605 1.1084486826 0.944491016
H -0.4423914838 1.2153491685 -0.8136549066
H 0.4308909388 -1.2027447167 0.8252410246
H 0.4510653258 -1.0946276368 -0.9547151745
H 2.494003381 -0.5039507466 -0.0064755272
*
