! wb97x-v def2-tzvp def2/J RIJCOSX DEFGRID2 scfconv7 GCP(DFT/TZ) printgap
%output
    printlevel normal
end
* xyz 0 1
C -2.5720864467806552 -0.6453394436205804 -0.29775475440166205
C -1.1988449427127306 -0.2723819516638666 0.2225198711523206
H -1.2132053857586482 -0.23471545515769415 1.3239684695281755
C -0.7068486977974413 1.065753969506702 -0.3270835041945044
H -0.7242432183905914 1.0277090198885757 -1.4291340032275905
C 0.7246670711477023 1.3062673411513765 0.14478459103818736
H 0.7167500605994225 1.4314154620582376 1.2353015350281429
C 1.6304461667140977 0.12807577049011973 -0.20713492312821138
H 1.710170816219803 0.036825731458642 -1.302950806119904
C 1.0170980659590574 -1.1570901485201626 0.33156625634826825
H 0.952117494588108 -1.1271919479748262 1.4317217166268248
O -0.29883487352226507 -1.3060304619762995 -0.2151649550170988
O 1.7872244073963937 -2.244468110035331 -0.10415867178826944
O 2.9228907786011895 0.28115122578543017 0.3814543770559977
O 1.2494283544909432 2.5341927054324893 -0.37613456882568364
O -1.5788571350007687 2.093225947816852 0.15085429408978757
O -3.0534371391871775 -1.8621569556593245 0.2847136735507586
H -2.5354347342169525 -0.7242257977152902 -1.3940491078641912
H -3.28659588967828 0.13546926854987962 -0.027572574080684045
H 1.5739075506727254 -3.0068640636160984 0.45071222820546614
H 3.2436022015729384 1.1592632114822228 0.1325763799542237
H 1.2600318797370555 2.463087326527525 -1.3425391479501179
H -1.1815012009895538 2.9385176859415876 -0.10212816812481376
H -2.440805640010899 -2.5634460629082443 0.026482754788398476
*
