! wb97x-v def2-tzvp def2/J RIJCOSX DEFGRID2 scfconv7 GCP(DFT/TZ) printgap
%output
    printlevel normal
end
* xyz 0 1
C 2.074903732112298 -1.0343447873069374 0.0003505308839446335
C 2.331339792599357 0.3430781813486011 0.00012111864416043276
C 1.3009034695657815 1.2717871427044223 -0.00010221785138478826
C -0.021970969416391525 0.8299480555338072 -0.0001286881688218619
C -0.3006988788442884 -0.55899664986593 -3.8631993232518384e-05
C 0.7661659890794533 -1.4755330973297305 0.0002831066776411242
C -1.6583324925100607 -1.0467760135094744 -0.0004285388911971584
O -2.6590185080072897 -0.3128439565855614 -3.98431918814472e-05
O -1.0180521088028653 1.7466057720012864 -0.00039721297404836625
H 2.895955556282882 -1.7419944206621665 0.0005568064230075024
H 3.3574846765129043 0.6968072379091663 0.00017476792063716976
H 1.5039636340140998 2.3373090126314175 -0.00027733643928060087
H 0.5350308297283596 -2.5370722819712235 0.0004326626489708475
H -1.7809223693472478 -2.144176928235463 0.000659374783389905
H -1.8677308263411716 1.2397173102986723 -0.0003900601634649145
*
