  17
        -22.48504726
 C         -2.8625361869        0.3976658291       -0.1064329876
 N         -1.8164418709       -0.5699232044        0.1261469135
 C         -0.4843485913       -0.2523006697        0.0353654219
 C          0.4640162516       -1.2824422379       -0.0097313129
 C          1.8134888388       -1.0027371861       -0.0385348323
 C          2.2603011636        0.3098756223       -0.0278063995
 C          1.3324057156        1.3363181380        0.0127659125
 C         -0.0226612142        1.0676102769        0.0426293072
 H         -2.7945211223        0.8583021731       -1.0992224628
 H         -2.8119492847        1.1851431799        0.6464185311
 H         -3.8233894708       -0.1012618006       -0.0147670884
 H         -2.0400539761       -1.5172698863       -0.1353468292
 H          0.1250225389       -2.3089645709       -0.0198628479
 H          2.5257814398       -1.8146925818       -0.0733227939
 H          3.3173406074        0.5278011282       -0.0529548044
 H          1.6673912150        2.3638601710        0.0181450649
 H         -0.7227632285        1.8871022160        0.0711711039
  17
        -22.48464683
 C         -2.7603818232       -0.8947059288       -0.0299924728
 N         -1.8804226063        0.2435482566        0.0250597814
 C         -0.5203629327        0.1685582071        0.0122104431
 C          0.1613980311       -1.0522500749       -0.0555469146
 C          1.5421381637       -1.0833485263       -0.0659292858
 C          2.2812366899        0.0862306930       -0.0098715043
 C          1.6158389821        1.3011469022        0.0574776060
 C          0.2385122628        1.3460380834        0.0685553195
 H         -3.7885968402       -0.5462031977       -0.0056441043
 H         -2.5971963687       -1.5605262461        0.8228025961
 H         -2.6074717232       -1.4671298239       -0.9498851165
 H         -2.2901777607        1.1590571470        0.0740045988
 H         -0.3900598840       -1.9777334433       -0.1001204036
 H          2.0488051785       -2.0367878994       -0.1187411526
 H          3.3603084101        0.0534983863       -0.0184598319
 H          2.1794748703        2.2223591303        0.1017622225
 H         -0.2708546461        2.2981945919        0.1212689187
