! r2scan-3c def2/J RI DEFGRID2 scfconv6 printgap
%output
    printlevel normal
end
%cpcm
    smd true
    smdsolvent "water"
end
* xyz 0 1
C -2.9021063611 -0.0581768893 0.0020669198
O -1.6630325285 0.6638750976 0.0011648653
C -0.5459191365 -0.0437672365 -0.0014672468
O -0.5020252359 -1.2504330196 -0.0023198159
C 0.6529719979 0.8822372246 -0.0037748422
Cl 2.1607706234 -0.0662450259 0.0017744209
H -3.6776561542 0.7007276647 0.0033158162
H -2.965723183 -0.687800107 0.8896493067
H -2.9675444503 -0.6868045794 -0.8861061339
H 0.6398293994 1.5121519413 0.8852469563
H 0.641854028 1.5043867259 -0.8983501533
*
