! pbe def2-sv(p) def2/J RI DEFGRID1 loosescf d4 GCP(DFT/SV(P)) printgap
%output
    printlevel normal
end
* xyz 0 1
C -2.3831943407 -1.1710871454 -0.3312765875
C -1.0751271119 -0.6244325533 0.2500111658
H -1.1429314687 -0.6006605367 1.3503013054
C -0.7774429641 0.7994035902 -0.2436990997
H -0.8089029238 0.8082921069 -1.3454641464
C 0.6288065968 1.2327192714 0.2005695077
H 0.6184310564 1.3257747769 1.3011782282
C 1.6785173407 0.1872595985 -0.1971501922
H 1.7607473032 0.1461384631 -1.2874392567
C 1.2272038403 -1.1993078478 0.3077549902
H 1.2135239709 -1.185287432 1.4211125991
O -0.0647582764 -1.5240202335 -0.1567172104
O 2.0992298604 -2.1531892762 -0.1668679474
O 2.9598358416 0.5103288138 0.2586604464
O 0.9796670031 2.4639063954 -0.3755236108
O -1.6737076401 1.7459489514 0.2838522375
O -3.4533950785 -0.3652281735 0.1032153569
H -2.4965384922 -2.2057820539 0.010084252
H -2.2994615046 -1.1673746274 -1.4247270533
H 1.7216217435 -3.037379859 -0.0314671296
H 2.9488213458 0.6549535244 1.2166949526
H 0.2596938894 3.0912079996 -0.2055179367
H -2.575114668 1.3814395221 0.2359063788
H -4.2865912837 -0.7289982994 -0.2289607362
*
