! pbe def2-sv(p) def2/J RI DEFGRID1 loosescf d4 GCP(DFT/SV(P)) printgap
%output
    printlevel normal
end
* xyz 0 1
C 1.8139192086 0.0072985728 0.9992158548
C 0.9787897004 -0.3423278938 -0.2306011636
H 1.0552280124 -1.4120412233 -0.4532896931
C -0.506353948 -0.0904434756 0.0728467484
F -1.2926241956 -0.3478483165 -0.9899188938
F -0.9625845699 -0.8778312427 1.0667233046
F -0.7707004544 1.1702818109 0.4397485581
O 1.3296761177 0.4606852393 -1.3277300051
H 2.8564978411 -0.2099023669 0.7920893264
H 1.4833627623 -0.574072626 1.8544579971
H 1.7124677522 1.0673646625 1.2165343386
H 1.5760999433 -0.0698112876 -2.097574662
*
