! pbe def2-sv(p) def2/J RI DEFGRID1 loosescf d4 GCP(DFT/SV(P)) printgap
%output
    printlevel normal
end
* xyz 0 1
C -2.2525318081 -0.9633529782 -0.3719423928
C -1.1476717477 -0.2215489232 0.3891086944
H -1.587384661 0.2215971162 1.2911505857
C -0.553208394 0.9060199207 -0.4572276469
H -0.3670702597 0.5516920142 -1.482817074
C 0.7879708291 1.3224779747 0.1588112636
H 0.6199780551 1.55969292 1.2221184966
C 1.7797165561 0.1523729227 0.049097464
H 2.2746721223 0.2041082732 -0.9263818935
C 1.037514132 -1.2030973316 0.1097851242
H 1.6606964079 -1.9100369925 0.6762642112
O -0.1531236283 -1.1359943271 0.857555682
O 0.8294804539 -1.6430273191 -1.1950325573
O 2.8038376493 0.236976601 1.0051247407
O 1.2361674027 2.4671305057 -0.5245057254
O -1.4730595511 1.9645235186 -0.4674287981
O -2.9587557134 -1.8559535162 0.4528995044
H -1.8120832993 -1.4904128653 -1.228309068
H -2.9753455918 -0.2307923406 -0.7350155594
H 0.6288390917 -2.5913033801 -1.2097887811
H 2.4324813895 0.1652407826 1.8972176442
H 2.1033413551 2.7281402549 -0.1831842201
H -1.0274008958 2.7421144407 -0.8399661618
H -2.3180414805 -2.3993385867 0.935347986
*
