! pbe def2-sv(p) def2/J RI DEFGRID1 loosescf d4 GCP(DFT/SV(P)) printgap
%output
    printlevel normal
end
* xyz 0 1
C -2.5531516388 -0.6950357114 -0.3255602901
C -1.1618931754 -0.329817777 0.209824907
H -1.1866175823 -0.2718111938 1.3109417954
C -0.6909809227 1.0278546691 -0.3558198698
H -0.6779627835 0.9505108956 -1.4498756785
C 0.7315308312 1.3254077536 0.1536314645
H 0.7190774769 1.4291549693 1.2461260887
C 1.6592942567 0.1525412277 -0.1968693605
H 1.7575096464 0.0736538566 -1.2909016068
C 1.0428899338 -1.1671409302 0.3073343897
H 1.0259146085 -1.1419961643 1.4190954139
O -0.2628664818 -1.3518306281 -0.1769683935
O 1.8297509264 -2.2051324367 -0.1533635726
O 2.9081451434 0.3743327652 0.4015353309
O 1.2088189245 2.5579119306 -0.3092363636
O -1.5897852679 2.0614671421 -0.0580499876
O -3.1976683073 -1.6940385935 0.4194548141
H -2.4345364917 -1.1010049256 -1.3316021466
H -3.1529616456 0.2209655269 -0.3713567122
H 1.3450693971 -3.0411769494 -0.0704473665
H 3.4879386715 -0.3771337488 0.205508254
H 1.3190562193 2.5360999287 -1.2706728927
H -1.4101396797 2.4175425839 0.8243963483
H -3.4348293929 -1.3502070318 1.292641008
*
