! pbe def2-sv(p) def2/J RI DEFGRID1 loosescf d4 GCP(DFT/SV(P)) printgap
%output
    printlevel normal
end
* xyz 0 1
C -2.0653124721 -1.3775251988 -0.1102358047
C -1.0125868386 -0.5023703534 0.59446144
H -1.4482360241 -0.1471948545 1.5373502658
C -0.6342431832 0.7103990491 -0.2757074221
H -0.5204264661 0.3880703058 -1.3191105719
C 0.7145989481 1.2467349648 0.2223137634
H 0.6852225418 1.3683279518 1.3121842342
C 1.7845668303 0.1950031822 -0.1188974361
H 2.0366814583 0.27363262 -1.1882366124
C 1.2284060574 -1.2273812921 0.1053125831
H 2.0010282541 -1.8036914733 0.6318037486
O 0.1317608636 -1.2594907593 0.9823324837
O 0.9252429344 -1.773897576 -1.1399860515
O 2.9386978333 0.3383772052 0.6671192626
O 1.0330193615 2.5141326638 -0.2888370029
O -1.651636753 1.677298517 -0.2931958787
O -3.3214594515 -0.7486856631 -0.1514065755
H -2.2012189912 -2.3005237615 0.4579453626
H -1.7190061775 -1.6261867126 -1.1222962919
H 0.8082884472 -2.7330963604 -1.0662991628
H 3.2538719842 1.2531480284 0.5986423876
H 0.9028775841 2.5277936765 -1.2483818569
H -1.6482263885 2.1795069694 0.5347124529
H -3.217713117 0.1329437961 -0.5452297119
*
