  19
        -23.03462979
 C         -1.7462931381        1.0757361489       -0.0282254072
 C         -0.8869653643       -0.1540177275       -0.0408612054
 O         -1.3776882980       -1.2672061664       -0.0422360811
 C          0.6257325600        0.0478552745       -0.0091361374
 C          0.9996365166        0.1980598475        1.4755115827
 C          1.0712891240        1.2878993327       -0.7857635051
 C          1.3144855847       -1.1949017660       -0.5802034665
 H         -1.6713292049        1.5691036762       -0.9944280679
 H         -2.7813242347        0.7940909641        0.1468393197
 H         -1.4143100447        1.7713702116        0.7360172461
 H          0.5480996900        1.0882099509        1.9052989019
 H          0.6633003808       -0.6693183913        2.0396622471
 H          2.0794300644        0.2765975496        1.5709890979
 H          2.1571680433        1.3424696197       -0.7762837832
 H          0.6837936688        2.1996859309       -0.3427362937
 H          0.7442518658        1.2297164401       -1.8211795792
 H          0.9643608969       -2.0879283425       -0.0678866937
 H          2.3916519988       -1.1190030722       -0.4610222006
 H          1.0842629850       -1.3021300913       -1.6380729691
  19
        -23.03406982
 C         -1.6392135922       -0.9638501705       -0.8302745226
 C         -0.9013809732        0.0215059616        0.0227396420
 O         -1.4950948431        0.8184939449        0.7260290621
 C          0.6272006877        0.0075713693       -0.0003149768
 C          1.0888576698       -0.2761686674        1.4372755586
 C          1.0823812545        1.4152727662       -0.4128457161
 C          1.2351910569       -1.0251138295       -0.9462210191
 H         -1.3723645241       -0.8215423348       -1.8737723783
 H         -1.3625769592       -1.9758202032       -0.5472503288
 H         -2.7098464173       -0.8267153305       -0.7025304391
 H          0.7942786543       -1.2781709567        1.7419702603
 H          2.1702629674       -0.1940525816        1.5047642183
 H          0.6374962371        0.4385335493        2.1217133790
 H          2.1630477064        1.4969054335       -0.3336765797
 H          0.6239875920        2.1597931068        0.2341679136
 H          0.7897380813        1.6247491350       -1.4395645830
 H          2.3192621745       -0.9573461487       -0.8922854520
 H          0.9389698042       -0.8427114305       -1.9751635412
 H          0.9485759088       -2.0352430027       -0.6683267480
  19
        -23.03351717
 C         -1.6475662403       -0.7833231726        0.9395898023
 C         -0.8893130367       -0.0189184830       -0.1092132260
 O         -1.4772654393        0.5206660195       -1.0276348831
 C          0.6288762440        0.0526081106        0.0189779564
 C          0.9924287930        0.7248162609        1.3492410537
 C          1.1969631340        0.8767944078       -1.1388486643
 C          1.2047110927       -1.3684474986       -0.0365792370
 H         -2.2196441318       -1.5668255697        0.4465070402
 H         -1.0094548403       -1.2167574805        1.6983974259
 H         -2.3660559637       -0.1095355524        1.4022806514
 H          0.6580991189        0.1396032020        2.2001379967
 H          2.0719997341        0.8348042928        1.4120681595
 H          0.5421293147        1.7132212949        1.4082934966
 H          2.2792872840        0.9350387304       -1.0657981953
 H          0.7869646886        1.8841280936       -1.1232356190
 H          0.9308609917        0.4246215171       -2.0916682956
 H          2.2900680945       -1.3172258212       -0.0070397188
 H          0.9087014494       -1.8598218302       -0.9607799203
 H          0.8675083218       -1.9715973777        0.8005656066
