! pbe def2-sv(p) def2/J RI DEFGRID1 loosescf d4 GCP(DFT/SV(P)) printgap
%output
    printlevel normal
end
* xyz 0 1
C -2.5952515256 0.8822011768 1.4053783605
C -1.5544898141 0.4736234575 0.4142871488
C -0.8247138488 1.321902301 -0.2987565272
C 0.1990396846 0.8339415726 -1.2745480398
C 1.0062051959 -0.363639058 -0.728571232
H 1.4163887773 -0.9000362633 -1.5894176722
C 0.149080297 -1.3490190183 0.1000142834
C -1.3485603876 -1.0067864046 0.1954635879
H -1.782873244 -1.5738711211 1.0270033812
O -2.074393554 -1.475811112 -0.9347768233
C 2.1793199019 0.1187070062 0.0949500639
C 3.4127715714 -0.2739921932 -0.1840236036
C 1.8879281096 1.0543101615 1.2281189369
H -3.5548539479 0.4437277169 1.134039688
H -2.6944067424 1.9637126689 1.4404834917
H -2.3331967754 0.517716487 2.3982495282
H -0.9528419951 2.389435435 -0.1918299605
H -0.2964713537 0.5325546013 -2.2026129523
H 0.8907199499 1.6360312357 -1.5370550567
H 0.2276907809 -2.352754512 -0.3206890488
H 0.5390505807 -1.3966054736 1.1173430489
H -1.7748766975 -0.9948659318 -1.7170978967
H 4.2590670396 0.050257825 0.3981079058
H 3.6305575812 -0.9375429538 -1.0041179605
H 1.0785110837 0.6758419046 1.8481469862
H 2.7719071653 1.1943422849 1.8443924203
H 1.5773912611 2.0247027341 0.8451196978
*
