! pbe def2-sv(p) def2/J RI DEFGRID1 loosescf d4 GCP(DFT/SV(P)) printgap
%output
    printlevel normal
end
* xyz 0 1
C -1.7930834912 -1.0571519069 -0.6810028995
C -1.0426044894 -0.4914334062 0.5350253126
H -1.7100622679 -0.5939249446 1.3995583086
C -0.7217596736 1.0061087816 0.3841299087
H -1.5871375031 1.4794820125 -0.0931202696
C 0.5484560314 1.2458134354 -0.4609720132
H 0.8265256582 2.3026973885 -0.331363229
C 1.705004728 0.3742992181 0.0692953057
H 2.5402076842 0.4293893783 -0.6411864667
C 1.2657125569 -1.0999467058 0.1283054605
H 2.0106874977 -1.6754045207 0.6923846155
O 0.0932194371 -1.2736841495 0.885415542
O 1.1976969615 -1.6639792899 -1.1418201654
O 2.0987875659 0.7615874323 1.3621871806
O 0.3773585548 0.9398790053 -1.8256675349
O -0.5882778651 1.6373031001 1.6344231045
O -3.0788570819 -0.4761438156 -0.6978961553
H -1.8440880062 -2.1457830569 -0.5589878661
H -1.2588862218 -0.8283597704 -1.6085714234
H 0.8672698706 -1.0025013879 -1.7758574603
H 2.6624749044 1.5478726264 1.3158628289
H -0.1955636433 1.600158903 -2.2413734297
H 0.1622336843 1.2324472344 2.1022086325
H -3.6038016791 -0.8890534481 -1.3979975847
*
