! pbe def2-sv(p) def2/J RI DEFGRID1 loosescf d4 GCP(DFT/SV(P)) printgap
%output
    printlevel normal
end
* xyz 0 1
C -1.8719852191 -0.600078269 -0.8598598081
C -1.1850129561 -0.1449956935 0.438022194
H -1.9399543907 -0.1673050959 1.2346968437
C -0.6128968498 1.2773595963 0.3472979841
H -1.3568636213 1.9220021531 -0.1398351201
C 0.6649614779 1.31161939 -0.5041581395
H 1.1180274477 2.3080257547 -0.3727271337
C 1.676863395 0.285129909 0.0378306335
H 2.4803754335 0.1393603503 -0.6933047891
C 1.0412252852 -1.1037059291 0.2577680493
H 1.6825603542 -1.6430515414 0.972519519
O -0.2092617742 -1.0801812029 0.8997931502
O 1.0063782779 -1.7597380185 -0.9738735269
O 2.2938290742 0.7511267514 1.2084623127
O 0.3029222298 1.0993675889 -1.8409242974
O -0.2693463705 1.7795382766 1.6189366907
O -2.8172236252 -1.6163382287 -0.6161293726
H -1.1206051242 -0.9204938615 -1.5873979521
H -2.4325016496 0.2332018514 -1.2855221314
H 0.8516106227 -2.7073414812 -0.8467362577
H 1.604714614 1.0854544915 1.8095237386
H 1.0864154874 1.1620546215 -2.4055710765
H -1.060287646 1.8466024578 2.1732012638
H -2.3732463801 -2.3617194101 -0.1881041886
*
