! pbe def2-sv(p) def2/J RI DEFGRID1 loosescf d4 GCP(DFT/SV(P)) printgap
%output
    printlevel normal
end
* xyz 0 1
C -1.8391768846 -1.0706196317 -0.6159508167
C -1.0256039143 -0.4898007436 0.5582048473
H -1.6373954141 -0.5535348803 1.4673943415
C -0.6965427215 1.0003768649 0.3445843813
H -1.5320828288 1.4422163243 -0.2108135405
C 0.6011285054 1.2344079457 -0.4622737371
H 0.8816554152 2.2840169756 -0.3045077528
C 1.7272773672 0.3451533029 0.0873081733
H 2.5890399779 0.4196673294 -0.5905533586
C 1.2648714571 -1.1257192839 0.1082037416
H 2.0103695186 -1.7323061905 0.6455663157
O 0.1015040569 -1.3090372919 0.8669623711
O 1.1361574893 -1.553856809 -1.2155945437
O 2.0438261822 0.7949775316 1.3795317464
O 0.4376299821 1.0769771836 -1.8465676319
O -0.641335286 1.6893846815 1.5719785168
O -3.1018615883 -0.4680117799 -0.7354409663
H -1.9314574267 -2.1544840214 -0.4668913307
H -1.3353592707 -0.8819172916 -1.5648653524
H 0.9965213107 -2.5122024187 -1.25189607
H 2.8300911054 0.3407835599 1.7154515775
H 0.5624956125 0.1410475507 -2.0762440097
H 0.1965577872 1.4675408655 2.0119724789
H -3.6289922221 -0.6531397675 0.0548546285
*
