! pbe def2-sv(p) def2/J RI DEFGRID1 loosescf d4 GCP(DFT/SV(P)) printgap
%output
    printlevel normal
end
* xyz 0 1
C -2.3556535859 -1.0060525617 0.3609234786
C -1.0807767664 -0.2603556828 0.8036908867
H -1.2999000029 0.186010028 1.7826150716
C -0.6753086883 0.8679917983 -0.1644748766
H -0.6705323508 0.5115843304 -1.1998126211
C 0.7540378968 1.2947690695 0.1981731419
H 0.7871180918 1.5088832227 1.2818493663
C 1.7214949465 0.1298175229 -0.0977861999
H 2.0469365309 0.1979969618 -1.1409182962
C 0.9927875293 -1.2243155545 0.0632234864
H 1.7057110151 -1.9708949154 0.4533209748
O -0.0061399993 -1.1721644094 1.044564143
O 0.5206349889 -1.6092409539 -1.188355397
O 2.8871841941 0.2113289762 0.6794589073
O 1.0842040295 2.4532990517 -0.5240607664
O -1.6063764843 1.9144609045 -0.1233303832
O -2.2412907154 -1.670996489 -0.8742529157
H -3.1784178423 -0.2851617326 0.3487404772
H -2.5634436161 -1.7834474031 1.0997250616
H -0.2495147566 -2.2008853518 -1.0832630862
H 2.6768373429 0.0461368882 1.6106080263
H 2.0194732529 2.6603256004 -0.3839356076
H -1.4062397683 2.5131920483 0.6097617968
H -2.3315378332 -1.0334993448 -1.5955472476
*
