! pbe def2-sv(p) def2/J RI DEFGRID1 loosescf d4 GCP(DFT/SV(P)) printgap
%output
    printlevel normal
end
* xyz 0 1
C -2.6003715092 -0.979808793 0.000257674
C -1.1555394612 -0.5681060217 0.0003932723
C -0.1863725612 -1.5629881539 -0.0001760213
C 1.1638402204 -1.2691272067 -0.0004681781
C 1.5693673944 0.0580437763 2.14666e-05
C 0.6090461373 1.0615431591 0.0002871006
C -0.7466453339 0.7684266697 0.0001556159
C -1.7353507497 1.8973587464 -0.000501116
O 2.8843808652 0.426146608 0.0002050984
H -3.2680569388 -0.1263446888 0.0166847461
H -2.8173912802 -1.5716538886 -0.8879333626
H -2.809737307 -1.5998934497 0.8707412013
H -0.4987824862 -2.5974478551 -0.0005308102
H 1.8940886723 -2.0655549144 -0.0009867552
H 0.9481505296 2.0866789618 0.0006163375
H -2.3724797615 1.8494823517 -0.8820048328
H -2.3696137366 1.8532298894 0.8833027209
H -1.2166629511 2.852041598 -0.0032166644
H 3.4518975289 -0.3587351647 0.0004314107
*
