! pbe def2-sv(p) def2/J RI DEFGRID1 loosescf d4 GCP(DFT/SV(P)) printgap
%output
    printlevel normal
end
* xyz 0 1
C -1.6855796078 0.6137864105 -0.6282477679
C -1.1978363407 -0.0785029375 0.6384303345
C 0.0387166337 -0.9461338786 0.3733168114
C 1.1795982615 -0.1462814484 -0.0240522504
C 2.1105646806 0.5343772582 -0.3448842082
H -1.9672552116 -0.1198586942 -1.3808307282
H -2.5507186724 1.2365180832 -0.4138338013
H -0.8987924384 1.2424072258 -1.0398733009
H -0.9540153865 0.6720439815 1.3935418784
H -1.9915668323 -0.7136081592 1.0372275684
H -0.1800923664 -1.6663183824 -0.4198191509
H 0.3016877936 -1.5008046541 1.278041651
H 2.9325581825 1.1207669347 -0.6279875101
*
