! wb97x-v def2-tzvp def2/J RIJCOSX DEFGRID2 scfconv7 GCP(DFT/TZ) printgap
%output
    printlevel normal
end
%cpcm
    smd true
    smdsolvent "water"
end
* xyz 0 1
C 2.4093298773195726 1.8387134692114103e-05 0.049210739959818214
N 1.0123337985305967 -9.330700535099045e-06 -0.390006507707615
C 0.3337600642936845 -1.1882134441808876 0.15109960658863852
C -1.1382415414940146 -1.175544362667216 -0.20894103848960702
O -1.7887108875597344 1.541993301433578e-05 0.30069798778916285
C -1.1382513874029374 1.175535662718875 -0.2090471928865895
C 0.3337523936964298 1.1882429211297107 0.15098349660021526
H 2.503495715541499 0.00015309111245414496 1.1500401276612713
H 2.921180720865306 0.8872417507494615 -0.33703659389857626
H 2.9211384249021646 -0.887322760568804 -0.3368163701327122
H 0.7954862816144926 -2.0910977714127417 -0.2649242879678029
H 0.4363512975575951 -1.2353258081546252 1.2525804288788005
H -1.2699745057088418 -1.2227205059012687 -1.3010794983943714
H -1.645119806696612 -2.032493089865484 0.2433208464638498
H -1.2699928972819496 1.2226174603438111 -1.3011886005457955
H -1.645131163797549 2.0325200975138897 0.2431457567015914
H 0.7954713872274115 2.0910909791678782 -0.26512842036446777
H 0.4363510003131836 1.235463920594774 1.252460457651713
*
