! pbe def2-sv(p) def2/J RI DEFGRID1 loosescf d4 GCP(DFT/SV(P)) printgap
%output
    printlevel normal
end
* xyz 0 1
C -2.2574617116 -0.9802652746 -0.3378759448
C -1.1295300479 -0.2480809202 0.4031191383
H -1.5418422209 0.1648459471 1.3341775642
C -0.5528173617 0.8867049675 -0.4490696952
H -0.3806083289 0.5379331362 -1.4729360847
C 0.7910029543 1.3313723238 0.1505830296
H 0.634256007 1.5966505406 1.2119538371
C 1.7979899324 0.1719171077 0.0746713227
H 2.3477931292 0.2597927814 -0.867340272
C 1.0646418555 -1.1913996235 0.0669393412
H 1.6998720846 -1.9151557311 0.5957014221
O -0.1204635826 -1.1693880525 0.8271512261
O 0.8428861641 -1.5725894576 -1.2537304594
O 2.7668290163 0.2204671151 1.0856037947
O 1.3064126462 2.4455231587 -0.531640155
O -1.4364910099 1.9699522661 -0.5642149698
O -2.9862508373 -1.831864051 0.5097079555
H -1.8321034448 -1.5352441557 -1.1829998031
H -2.9662676808 -0.2431000807 -0.7202551116
H 0.7037498579 -2.529759875 -1.3168585573
H 2.3404594824 0.2231357235 1.955839508
H 0.5589318794 2.9699180604 -0.8655889969
H -1.7051974797 2.275448376 0.3160562114
H -2.3685126105 -2.4357119735 0.9473699489
*
