! pbe def2-sv(p) def2/J RI DEFGRID1 loosescf d4 GCP(DFT/SV(P)) printgap
%output
    printlevel normal
end
* xyz 0 1
C -2.4515482821 -0.8608255785 0.1665547872
C -1.0234665637 -0.4878170469 0.5679611239
H -0.8763211772 -0.7340309271 1.6323134521
C -0.7449494995 1.0219078892 0.3964826132
H -1.5871287788 1.4815001867 -0.1334180369
C 0.5217110292 1.2321466578 -0.4643308618
H 0.8373938748 2.2796104727 -0.3916538208
C 1.6656067968 0.357784823 0.0880600888
H 2.5176146117 0.3946065643 -0.5991659875
C 1.2077012214 -1.120475061 0.1660063099
H 1.3224979025 -1.4600433235 1.2185859673
O -0.1452571426 -1.2776654596 -0.2113842947
O 1.9782380396 -1.8751088443 -0.6930849474
O 2.1237217432 0.8316560478 1.3266232981
O 0.271030123 1.0072598717 -1.823658642
O -0.5860040171 1.5707793666 1.6888922646
O -2.7160605298 -0.3521881539 -1.1192313395
H -3.1391743453 -0.431158346 0.9058907819
H -2.5289904388 -1.953232522 0.1813544223
H 1.6122575911 -2.7715186183 -0.7623552616
H 1.3524335737 1.0470281088 1.8835161929
H -0.0883789341 0.1125206783 -1.9336584144
H -0.7146968317 2.5295786628 1.6583180262
H -3.5708050826 -0.683384158 -1.4273008301
*
