! pbe def2-sv(p) def2/J RI DEFGRID1 loosescf d4 GCP(DFT/SV(P)) printgap
%output
    printlevel normal
end
* xyz 0 1
C -2.384696017 -0.7846267013 -0.0699832236
C -0.9630818767 -0.3519461476 0.2931683414
H -0.9463041743 -0.0986023167 1.3630688139
C -0.5085444816 0.8674361802 -0.5299567304
H -0.4721162522 0.577969734 -1.5865998682
C 0.9040861862 1.3095241621 -0.0852778183
H 0.809165416 2.0898904127 0.6784283122
C 1.679762606 0.1400973693 0.5581008899
H 2.7479509649 0.3018769046 0.355831646
C 1.2590411062 -1.1716570765 -0.1215265281
H 1.7990840666 -2.026122704 0.3173037608
O -0.099360289 -1.4651629961 0.0691872615
O 1.5771652698 -1.0401639586 -1.4770766362
O 1.418785413 0.1348662914 1.9363417547
O 1.6305447483 1.8936943985 -1.1321808155
O -1.4376696959 1.9161736569 -0.4729517143
O -2.9830470884 -1.3757740644 1.0612699069
H -2.326729449 -1.4975361867 -0.9002027892
H -2.945410246 0.1038016655 -0.386137286
H 1.3745205348 -1.8641700014 -1.9460782861
H 1.9824933943 -0.5128544891 2.383682199
H 1.7860141381 1.2233219544 -1.8162023998
H -1.4703453061 2.2760142831 0.4255933311
H -3.8675347094 -1.6889038737 0.8253374674
*
