! wb97x-v def2-tzvp def2/J RIJCOSX DEFGRID2 scfconv7 GCP(DFT/TZ) printgap
%output
    printlevel normal
end
%cpcm
    smd true
    smdsolvent "water"
end
* xyz 0 1
C -0.4100523021061936 -1.062923191790791 1.1771020064937133e-05
C 0.9609207382227641 -1.2093924331395935 1.5862517693000456e-05
C 1.776880423178509 -0.06791619892881358 -9.781064076426394e-06
C 1.2176180852270857 1.2146885698901164 -3.628099864650468e-05
C -0.15941489704357312 1.348113672053878 -5.4244118435503725e-05
C -0.9904470867434642 0.217907614594012 -4.585742080959228e-05
C -2.4313320826003175 0.4049318299076173 -8.01402120179238e-05
O -3.263817813181517 -0.5025388788408868 4.9387881329834945e-05
O 3.121421395802397 -0.27293264293276026 -1.568160133935838e-05
H -1.0511873535508998 -1.9386798750290006 3.0828638052451006e-05
H 1.42406215864506 -2.190453846469572 2.6422865338702382e-05
H 1.865425813149133 2.086258484876152 -5.130660435067563e-05
H -0.6062233384421056 2.3387003737162586 -5.074112569448088e-05
H -2.76456685336982 1.4617901221710905 1.75773256254012e-05
H 3.5842065818443025 0.5782067850348848 -2.212565989152013e-05
*
