! wb97x-v def2-tzvp def2/J RIJCOSX DEFGRID2 scfconv7 GCP(DFT/TZ) printgap
%output
    printlevel normal
end
* xyz 0 1
C -2.200644294777315 0.30778927760853464 -0.29972848489499815
C -1.003925237940876 0.1697894358767494 0.6495074428004202
C 0.0025993969169103392 -0.8113594993437987 0.130056136756429
C 1.271423106891845 -0.5756700165086049 -0.2230074213332638
C 2.007559266231694 0.7250859015750366 -0.16946972302496585
H -1.8828076870263026 0.7022945477345877 -1.270465359657625
H -2.954454729470207 0.9853096913731282 0.11400190032935419
H -2.677385633667184 -0.663301456760271 -0.471665160298807
H -0.5503820607020393 1.151092053565634 0.8167261452081316
H -1.369606225626661 -0.17986860724474615 1.624594621655408
H -0.3719140837368575 -1.8295399017987515 0.012899177235841195
H 1.8528143104943948 -1.4187492701549473 -0.5970585419280584
H 2.884334618370136 0.6451672226112524 0.48467690175426414
H 1.391209404572594 1.5516853436619578 0.18914147075693613
H 2.3897439677682386 0.99082342194946 -1.1624649141661736
*
