! r2scan-3c def2/J RI DEFGRID2 scfconv6 printgap
%output
    printlevel normal
end
%cpcm
    smd true
    smdsolvent "water"
end
* xyz 0 1
C -2.5438685569 -0.9119637321 0.2871945736
C -1.116784726 -0.4707280849 0.6172924126
H -1.0132757155 -0.3976513089 1.7122684156
C -0.8208605477 0.9123760248 0.0215994097
H -1.0399768942 0.884477196 -1.0553339095
C 0.6591312675 1.2676885418 0.2073597357
H 0.862836271 1.3963832335 1.2833915199
C 1.5429346916 0.1342647576 -0.3149217122
H 1.3891570428 0.0223849435 -1.3986280411
C 1.1213608379 -1.1816029561 0.3563432437
H 1.295952775 -1.0923637192 1.451927331
O -0.2355811825 -1.4584351774 0.1231136859
O 1.8767000882 -2.2061260917 -0.1823477982
O 2.879091475 0.4570892602 -0.0267123375
O 0.8983231216 2.4745123503 -0.4733048131
O -1.6470199964 1.8403920398 0.6765361173
O -2.7292275846 -0.8897806044 -1.1078554609
H -3.2260233039 -0.2141206266 0.7862300081
H -2.6844491754 -1.9246564779 0.6822641187
H 1.4330336835 -3.0532880132 -0.0211759631
H 3.4452657725 -0.2826942438 -0.2923546274
H 1.8501669057 2.6538666967 -0.4545963369
H -1.4312459062 2.7234649651 0.3397328081
H -3.6259260389 -1.1920034905 -1.310141774
*
