! wb97x-v def2-tzvp def2/J RIJCOSX DEFGRID2 scfconv7 GCP(DFT/TZ) printgap
%output
    printlevel normal
end
%cpcm
    smd true
    smdsolvent "water"
end
* xyz 0 1
C 0.25543131962584065 -0.535837528550344 0.0006473889570392679
C 1.3922494122222917 0.15200628839495842 -0.0009174121988708722
F 2.582928155947811 -0.3935507971202236 -0.001027258321482798
F 1.4318534725300192 1.4658358535372997 -0.002988814382958079
C -1.1010819797381188 0.11063783809007607 0.0002551962071240159
F -1.2952015996418 0.8883267940315631 1.0918410804559495
F -1.2816565093357228 0.9123589057345103 -1.0758892164096676
F -2.0598845543406967 -0.8285575446869017 -0.015789802801372068
F 0.27947614784989433 -1.8768683346930164 0.003814038269695735
*
