! pbe def2-sv(p) def2/J RI DEFGRID1 loosescf d4 GCP(DFT/SV(P)) printgap
%output
    printlevel normal
end
* xyz 0 1
C -2.4179508434 -0.6769254203 0.0084848829
C -0.984877303 -0.2630496773 0.3538162222
H -0.94099232 0.0382889148 1.4092431337
C -0.5080299912 0.9029907054 -0.5144545387
H -0.4780233122 0.5607547533 -1.5617101698
C 0.9182702267 1.3201116317 -0.0924000147
H 0.8362548752 2.0941601163 0.6786647195
C 1.6893456286 0.1373906327 0.5293432149
H 2.7511226052 0.2625934845 0.274769162
C 1.1960656281 -1.1721288216 -0.1061698474
H 1.7252234758 -2.0352924901 0.3276649359
O -0.1603470858 -1.4141095012 0.1582107909
O 1.4550488518 -1.0780741443 -1.4762172132
O 1.4935323822 0.1539405641 1.9178685504
O 1.6219929461 1.8980004443 -1.1604035097
O -1.4218407589 1.9611604496 -0.3797961815
O -2.9130939019 -1.6583887907 0.8814119363
H -2.4453815729 -1.0345166845 -1.0293804008
H -3.0677484181 0.1932340249 0.1078240307
H 1.2269367132 -1.9108067954 -1.9175543572
H 2.0803568008 -0.4842050442 2.3493402186
H 1.7822840188 1.2173624846 -1.8332304807
H -1.0975660274 2.7207269847 -0.8865136386
H -2.2904497418 -2.4001028234 0.8876799748
*
