! wb97x-v def2-tzvp def2/J RIJCOSX DEFGRID2 scfconv7 GCP(DFT/TZ) printgap
%output
    printlevel normal
end
%cpcm
    smd true
    smdsolvent "water"
end
* xyz 0 1
C -3.9994394247798812 -0.47959691624748374 -0.00123156691597104
C -2.546423273157694 -0.10191179915473832 5.912862191759625e-06
C -2.1783327636448946 1.2692735420544186 0.00020002942731631065
C -0.8603018456999263 1.6556223462279274 0.00038465785988638584
C 0.1788033724553016 0.691705930930101 0.00035109487576103594
C 1.5484761257626072 1.0533605100620769 3.8978795200894206e-05
C 2.5464274679212964 0.10191289213031407 -0.00024198486914034305
C 2.178336732628976 -1.2692726800534238 0.0001130428823744212
C 0.8603059229831983 -1.6556200961775984 0.0004884864697980281
C -0.17879870909867476 -0.6917025959087479 0.00045510093766716695
C -1.5484709145031514 -1.0533584887574556 0.0003282753424545614
C 3.999444694126664 0.47959549852492395 -0.0011045390576607025
H -4.507503230341036 -0.07687092067469635 -0.8847933346928284
H -4.127777629685544 -1.5647270422179373 0.00403802402593724
H -4.511710606512852 -0.06749818314111386 0.8754825595916549
H -2.962694658567508 2.021845774758346 0.00015640687168802967
H -0.5961691192763697 2.7098384143740457 0.0005341615054432535
H 1.8062613457267425 2.1099981078514713 -0.00013827109827710914
H 2.962698663195098 -2.021844932797017 1.51992464797201e-05
H 0.5961700298352051 -2.7098353884058892 0.0007031754626179317
H -1.8062534515133066 -2.109996795878876 0.00034859889671070806
H 4.510224288528103 0.07208454848782792 0.8786489706900569
H 4.509008754571528 0.07226338263347859 -0.881656537582171
H 4.1277757231027685 1.5647390833980814 -0.0011173013573215367
*
