! pbe def2-sv(p) def2/J RI DEFGRID1 loosescf d4 GCP(DFT/SV(P)) printgap
%output
    printlevel normal
end
* xyz 0 1
C -1.6475662403 -0.7833231726 0.9395898023
C -0.8893130367 -0.018918483 -0.109213226
O -1.4772654393 0.5206660195 -1.0276348831
C 0.628876244 0.0526081106 0.0189779564
C 0.992428793 0.7248162609 1.3492410537
C 1.196963134 0.8767944078 -1.1388486643
C 1.2047110927 -1.3684474986 -0.036579237
H -2.2196441318 -1.5668255697 0.4465070402
H -1.0094548403 -1.2167574805 1.6983974259
H -2.3660559637 -0.1095355524 1.4022806514
H 0.6580991189 0.139603202 2.2001379967
H 2.0719997341 0.8348042928 1.4120681595
H 0.5421293147 1.7132212949 1.4082934966
H 2.279287284 0.9350387304 -1.0657981953
H 0.7869646886 1.8841280936 -1.123235619
H 0.9308609917 0.4246215171 -2.0916682956
H 2.2900680945 -1.3172258212 -0.0070397188
H 0.9087014494 -1.8598218302 -0.9607799203
H 0.8675083218 -1.9715973777 0.8005656066
*
