! pbe def2-sv(p) def2/J RI DEFGRID1 loosescf d4 GCP(DFT/SV(P)) printgap
%output
    printlevel normal
end
* xyz 0 1
C -2.4032543489 -0.7401603609 -0.0276333905
C -0.9857784158 -0.2989959231 0.363455301
H -0.9761134907 0.0323013158 1.4153852778
C -0.5049264369 0.86263194 -0.5213855703
H -0.4208115559 0.513473793 -1.5557257714
C 0.8797266033 1.3281405755 -0.0389997785
H 0.7391661966 1.9761997998 0.8440049947
C 1.7397437789 0.1450931669 0.4359982782
H 2.7507896086 0.2987146835 0.0370486529
C 1.206048261 -1.183939381 -0.1234691958
H 1.7689262565 -2.0207544397 0.3215254719
O -0.1232656828 -1.4293098735 0.2543937758
O 1.3703243083 -1.1678954989 -1.5068837151
O 1.7227017951 0.1448873445 1.8406107188
O 1.5829958393 2.0216967054 -1.0361657491
O -1.4173029685 1.9296061902 -0.5514109022
O -2.9848709001 -1.6413567654 0.8773168668
H -2.3593201203 -1.2673838743 -0.982126251
H -3.0249459155 0.1562743707 -0.1459472347
H 1.1210128774 -2.0282480509 -1.8788157136
H 2.3616495746 -0.4958720662 2.1844030033
H 0.9925882893 2.6757407154 -1.4402105387
H -1.5003769795 2.3146633591 0.3345166262
H -3.0273125976 -1.2389629048 1.7565015064
*
