! wb97x-v def2-tzvp def2/J RIJCOSX DEFGRID2 scfconv7 GCP(DFT/TZ) printgap
%output
    printlevel normal
end
%cpcm
    smd true
    smdsolvent "water"
end
* xyz 0 1
C -1.9467406807551477 -0.13876326671949898 7.369360886951859e-05
C -0.5697795849301014 0.5209273530609811 0.00016237642588851837
C 0.5612490188147102 -0.5040869922491412 -0.0002646882645858633
N 1.9228745229629685 0.06253012754285331 9.938244802775318e-05
H -2.0784056536128626 -0.7713781385038541 -0.8849511268236632
H -2.0783410986598585 -0.7717149869189628 0.8848670824747438
H -2.7483411236312256 0.6063031579018083 0.00024162557100139418
H -0.4647442074490117 1.1669527395258328 0.8821360722378611
H -0.4648922484132611 1.167460859836477 -0.8814613087278413
H 0.4594912431527039 -1.1541035371327202 0.8778127221512866
H 0.4595204335317789 -1.153266004110274 -0.8789734964514772
H 2.00219150443974 0.6783897455100506 0.8055655518009889
H 2.0015653573508527 0.6810064992970111 -0.8034181227990339
*
