! pbe def2-sv(p) def2/J RI DEFGRID1 loosescf d4 GCP(DFT/SV(P)) printgap
%output
    printlevel normal
end
* xyz 0 1
C -2.4277634218 -1.102533313 -0.2779817851
C -1.0645030985 -0.588459521 0.2078677028
H -1.0844623271 -0.5326433737 1.3086058771
C -0.7390148832 0.8025056282 -0.3544182924
H -0.6639439931 0.7209898105 -1.4478221056
C 0.6296434677 1.2372703648 0.1974356466
H 0.563969378 1.3097087831 1.2917721996
C 1.6893437352 0.1818016228 -0.1500902245
H 1.8515864574 0.1797607521 -1.2370674122
C 1.2189666675 -1.2227494927 0.2572274236
H 1.2300777817 -1.2746067384 1.3663873184
O -0.0815062485 -1.5104169705 -0.211532213
O 2.0763487578 -2.1439477866 -0.3008565326
O 2.8867404272 0.4340366602 0.5351978151
O 1.0612590826 2.4608520128 -0.3578881116
O -1.7648612563 1.6940497867 0.0138690797
O -3.4965475569 -0.5217191316 0.4174704261
H -2.4773271892 -2.1772860636 -0.0928200545
H -2.5155908597 -0.9290904414 -1.3582344407
H 1.735237266 -3.0401721135 -0.1504248064
H 3.2334259951 1.2906096725 0.2399442248
H 0.6637066636 3.2002108728 0.1227078288
H -1.691452282 2.5028052208 -0.5135695201
H -3.4000095442 0.4444898083 0.3720232618
*
