! pbe def2-sv(p) def2/J RI DEFGRID1 loosescf d4 GCP(DFT/SV(P)) printgap
%output
    printlevel normal
end
* xyz 0 1
C -2.4743171771 -0.4646103622 -0.1976836359
C -1.0354775348 -0.1956961344 0.2484605254
H -0.9621243978 -0.3521166951 1.3366301912
C -0.6093073809 1.2534029735 -0.0726509645
H -1.1634154959 1.6137463826 -0.9455743227
C 0.8891319176 1.2971419458 -0.4385584453
H 1.2620430871 2.2994491715 -0.1752260119
C 1.651040189 0.2619825638 0.4069769415
H 2.7110751323 0.264119924 0.122357894
C 1.1136075218 -1.1538993039 0.0929539784
H 1.1209832297 -1.7454989298 1.0372027822
O -0.2018481304 -1.1392195395 -0.4059539649
O 1.9421862792 -1.7318674457 -0.8509858012
O 1.4775103233 0.6179150153 1.7554058014
O 1.0059740065 1.0638865811 -1.8146515208
O -0.9232853318 2.1251281463 0.9771062289
O -2.9579442369 -1.7029374238 0.2545304964
H -2.515478703 -0.403701978 -1.2918450682
H -3.1221092314 0.2995425287 0.2348095625
H 1.4665074852 -2.4448260385 -1.304224147
H 2.1400438291 0.1808502671 2.3091345572
H 1.9385026958 1.0669976762 -2.0752688245
H -0.3669007656 1.9038868423 1.7417834963
H -2.4022639641 -2.4024484833 -0.1183502492
*
