! pbe def2-sv(p) def2/J RI DEFGRID1 loosescf d4 GCP(DFT/SV(P)) printgap
%output
    printlevel normal
end
* xyz 0 1
C -2.5309301829 -0.6404948259 -0.145391532
C -1.1937872469 -0.4753640237 0.5934300585
H -1.2945784764 -0.8504138979 1.6243137087
C -0.7227502151 0.9940981874 0.703116014
H -1.5823555715 1.6529927756 0.5335952906
C 0.3508591757 1.3047421302 -0.3548612624
H 0.7562525327 2.3102079662 -0.1728625771
C 1.5479429786 0.3248648619 -0.2016797388
H 2.0077094054 0.2089442468 -1.1890132634
C 1.0681471409 -1.0531823821 0.3093295451
H 1.1088408256 -1.0627677356 1.4109731013
O -0.2611208552 -1.2780764389 -0.1120926426
O 1.852003906 -2.1083150911 -0.106432592
O 2.5506896721 0.8584674023 0.6231769659
O -0.1660461217 1.3226155472 -1.6576642312
O -0.1967826916 1.1787951659 2.0025581377
O -2.3953415283 -0.3857481178 -1.5242618816
H -3.2590489079 0.0744169884 0.2403916531
H -2.9005883899 -1.6552610652 0.0226574155
H 1.8005339464 -2.2007694068 -1.0705468631
H 2.2068164975 0.9383766835 1.5265339576
H -0.954507719 0.7419842149 -1.7216394248
H -0.2563714647 2.1113510959 2.2530225407
H -1.9497005549 -1.1429893539 -1.9317437404
*
