  31
        -35.71758166
 C          3.6889925858        0.3685492735        0.0422806240
 C          2.2147182942        0.2960618368       -0.3466521150
 H          2.1379380674        0.3296016044       -1.4393405199
 C          1.4316981519        1.4746168199        0.2309937965
 C         -0.0396993177        1.3872228395       -0.1625309205
 C         -0.6694123140        0.0901699605        0.3475260782
 H         -0.5435338181        0.0566626573        1.4376430618
 C          0.1072220826       -1.1064508956       -0.2324983600
 H          0.0079312985       -1.1142463600       -1.3236048158
 C          1.5891360480       -1.0093058375        0.1420062894
 O         -0.4357173371       -2.3495385067        0.1757798893
 C         -2.1816399700       -0.0245679277        0.0642691891
 C         -2.9902011400        0.8345364909        1.0358275879
 C         -2.5620023141        0.3233813805       -1.3738499913
 H          4.1327560559        1.2919118477       -0.3217444804
 H          3.7981408828        0.3382644038        1.1241641101
 H          4.2379004861       -0.4685355370       -0.3822250166
 H          1.5232334527        1.4701597756        1.3196032486
 H          1.8539330067        2.4121469265       -0.1357584200
 H         -0.5788126832        2.2421370554        0.2476029692
 H         -0.1147517940        1.4265759158       -1.2500021198
 H          1.6824178917       -1.0660364587        1.2303267670
 H          2.1163843723       -1.8651998952       -0.2853089577
 H         -0.3134100411       -2.4398138178        1.1313400101
 H         -2.4496847556       -1.0744913788        0.2327568523
 H         -2.7659261302        1.8893750155        0.8964247250
 H         -2.7698570575        0.5679696166        2.0669484287
 H         -4.0543464898        0.6895861129        0.8658410296
 H         -3.6097274680        0.0843789269       -1.5419592179
 H         -1.9693404102       -0.2486407133       -2.0829736601
 H         -2.4214594225        1.3832074393       -1.5695335694
  31
        -35.71611717
 C          3.6879042958        0.3738251577        0.0481831581
 C          2.2132968040        0.3081467167       -0.3405618008
 H          2.1350699784        0.3681386171       -1.4324889286
 C          1.4289770902        1.4712451957        0.2646194949
 C         -0.0419606282        1.3894999899       -0.1305726096
 C         -0.6673198162        0.0786500073        0.3467222302
 H         -0.5406302726        0.0042706690        1.4331386814
 C          0.1084500177       -1.1015438232       -0.2583441336
 H          0.0132548043       -1.0715817080       -1.3562357724
 C          1.5913553274       -1.0106457142        0.1155171390
 O         -0.4624393859       -2.3060157296        0.2272994375
 C         -2.1807810979       -0.0306390340        0.0677199465
 C         -2.9812919202        0.8428896728        1.0330417706
 C         -2.5653964612        0.3069492013       -1.3718860017
 H          4.1283450536        1.3083429939       -0.2905048053
 H          3.7974114056        0.3140515273        1.1287002190
 H          4.2397574713       -0.4492351084       -0.3994327504
 H          1.5189817303        1.4392859873        1.3527203277
 H          1.8499139566        2.4181141664       -0.0793029951
 H         -0.5834909989        2.2308088425        0.3025466191
 H         -0.1193184166        1.4565259462       -1.2168800349
 H          1.6775946399       -1.1016317760        1.2010626841
 H          2.1306750888       -1.8476316439       -0.3359382240
 H          0.0448103501       -3.0548806097       -0.1125847363
 H         -2.4488618166       -1.0757423210        0.2574234607
 H         -4.0465660537        0.6887414010        0.8787295237
 H         -2.7652689032        1.8965583947        0.8735520142
 H         -2.7456438402        0.5929125148        2.0647291944
 H         -2.4202602177        1.3649361276       -1.5747533858
 H         -3.6151939101        0.0726474889       -1.5330981439
 H         -1.9792993641       -0.2709451570       -2.0815573448
  31
        -35.71603457
 C          3.7240317247        0.1857581768        0.0427221530
 C          2.2459590452        0.3315457833       -0.3090707868
 H          2.1595360186        0.5519502377       -1.3790528412
 C          1.6000782878        1.4713476720        0.4764177491
 C          0.1194763030        1.5947219909        0.1325782239
 C         -0.6463270652        0.2995104784        0.4264697179
 H         -0.5226603011        0.0700375187        1.4925923089
 C          0.0011727680       -0.8447303887       -0.3745580700
 H         -0.0914453517       -0.6368665674       -1.4454568976
 C          1.4872611631       -0.9613004413       -0.0180830017
 O         -0.6466041886       -2.0922481325       -0.1977938674
 C         -2.1587649189        0.4938247946        0.1731555493
 C         -2.5372713219        0.4367719183       -1.3055329875
 C         -3.0040654346       -0.5128286116        0.9541437726
 H          4.1749212443       -0.6220417968       -0.5284916376
 H          4.2596738190        1.1055137613       -0.1790524285
 H          3.8424400782       -0.0336941278        1.1015369060
 H          1.7121502513        1.2799218230        1.5461560212
 H          2.1074747911        2.4111256644        0.2505551943
 H         -0.3208032293        2.4102672063        0.7099210342
 H          0.0176988333        1.8429851318       -0.9257347213
 H          1.5807778257       -1.2008596915        1.0451037821
 H          1.9167256271       -1.7879966261       -0.5885846306
 H         -0.4955167631       -2.3859054838        0.7113509523
 H         -2.4083742969        1.4950205477        0.5469728890
 H         -3.5824077232        0.7120559322       -1.4276736413
 H         -2.4043935159       -0.5708578163       -1.6913294597
 H         -1.9347360011        1.1233118700       -1.8947069513
 H         -2.8307703255       -1.5187361125        0.5824941152
 H         -4.0603910447       -0.2815546089        0.8358038086
 H         -2.7651768630       -0.4793853016        2.0149498020
  31
        -35.71477459
 C          3.7241345654        0.1811190103        0.0642125228
 C          2.2502717445        0.3301716534       -0.3034502342
 H          2.1757705283        0.5483323455       -1.3752768205
 C          1.6003252873        1.4752397959        0.4702553750
 C          0.1222572477        1.5990103399        0.1162408192
 C         -0.6431141875        0.3039083469        0.4076113497
 H         -0.5177760201        0.0606755923        1.4686993150
 C          0.0041168642       -0.8365075588       -0.3932687995
 H         -0.0668109910       -0.6027975757       -1.4678954379
 C          1.4854505914       -0.9610355801       -0.0200120832
 O         -0.6813157204       -2.0504720171       -0.1344200981
 C         -2.1567015183        0.4938645127        0.1602644785
 C         -2.5543742502        0.3597476342       -1.3081019094
 C         -2.9848068765       -0.4671857743        1.0128021070
 H          4.1819261086       -0.6245452399       -0.5046529645
 H          4.2630228005        1.1013790977       -0.1472917020
 H          3.8291810284       -0.0427539635        1.1234130017
 H          1.7024625098        1.2880201049        1.5415382882
 H          2.1116693084        2.4127453326        0.2434777664
 H         -0.3214354304        2.4132539511        0.6920855816
 H          0.0237073698        1.8472713644       -0.9428336806
 H          1.5583930075       -1.2075433753        1.0420253372
 H          1.9304802011       -1.7828516922       -0.5875640102
 H         -0.2006651052       -2.7762719097       -0.5542163312
 H         -2.3994609465        1.5147897270        0.4809967733
 H         -3.5953207125        0.6486500884       -1.4345459211
 H         -2.4467080404       -0.6708979307       -1.6353051805
 H         -1.9450987986        1.0001512911       -1.9411725339
 H         -4.0459391880       -0.3146085652        0.8288292966
 H         -2.7922019608       -0.3029434139        2.0707152101
 H         -2.7302378681       -1.4948039411        0.7712880481
  31
        -35.71462770
 C          3.7425321632        0.2684793486        0.0859946887
 C          2.2882422660        0.1574671429       -0.3630985655
 H          2.2667883673       -0.1021393476       -1.4274629216
 C          1.5401249885        1.4713574160       -0.1635707433
 C          0.0881135454        1.3465459646       -0.6138043458
 C         -0.6813102609        0.2512919933        0.1380236981
 H         -0.7108531603        0.5121887793        1.2027837597
 C          0.0937186216       -1.0762559319       -0.0167775814
 H          0.0573629527       -1.3791480572       -1.0705776399
 C          1.5554678096       -0.9264416845        0.4194245309
 O         -0.4859595783       -2.1657857355        0.6794650771
 C         -2.1363160429        0.1346518628       -0.3764973302
 C         -3.0134155987       -0.6818937669        0.5749241370
 C         -2.8025834452        1.4980991702       -0.5821667026
 H          3.7953998868        0.5261108519        1.1415033007
 H          4.2618611484       -0.6748626921       -0.0643441876
 H          4.2571386755        1.0397236155       -0.4818141748
 H          1.5733939739        1.7471857706        0.8929994537
 H          2.0253804816        2.2674588936       -0.7315403263
 H         -0.4000898582        2.3068027662       -0.4550748916
 H          0.0612989371        1.1230415247       -1.6831490930
 H          1.5805955903       -0.6762000405        1.4840146423
 H          2.0501787545       -1.8917463086        0.2891905170
 H         -0.3771256745       -2.0114959857        1.6284940307
 H         -2.1070543224       -0.3813022228       -1.3434704727
 H         -4.0275960401       -0.7409161987        0.1857461290
 H         -3.0513821587       -0.2074535144        1.5535106180
 H         -2.6335075866       -1.6921123270        0.6841485613
 H         -2.3595166763        2.0458218669       -1.4082423196
 H         -2.7303363931        2.0985449693        0.3220449430
 H         -3.8566191051        1.3536961891       -0.8086318953
  31
        -35.71405715
 C          3.6835983905        0.3627632037        0.0704776702
 C          2.2131712658        0.3033222859       -0.3331920027
 H          2.1466043484        0.3686316114       -1.4254890830
 C          1.4253428211        1.4644393282        0.2710166862
 C         -0.0449947053        1.3815157527       -0.1257788134
 C         -0.6741533415        0.0719317251        0.3542785046
 H         -0.5327419856       -0.0051528658        1.4391613840
 C          0.1043968752       -1.1028590157       -0.2706035641
 H          0.0217165360       -1.0543787157       -1.3674519762
 C          1.5835101713       -1.0141453517        0.1108945650
 O         -0.3480019348       -2.3702614921        0.1800342650
 C         -2.1933260351       -0.0073889696        0.0946071605
 C         -2.9610088824        0.9388696023        1.0189818613
 C         -2.5834619233        0.2629953217       -1.3582176109
 H          4.1307753935        1.2973882582       -0.2592786350
 H          3.7819746372        0.2962597962        1.1516057627
 H          4.2356823293       -0.4609126215       -0.3753973232
 H          1.5138760836        1.4311492481        1.3591524741
 H          1.8450209732        2.4126357349       -0.0709119214
 H         -0.5829046215        2.2269299637        0.3035851605
 H         -0.1207317144        1.4449577059       -1.2126189060
 H          1.6602512215       -1.1202622196        1.1950017894
 H          2.1055516451       -1.8606717826       -0.3395269865
 H         -1.2177114803       -2.5567467508       -0.1955360330
 H         -2.5090473799       -1.0253416161        0.3522098365
 H         -2.7381316957        1.9772229708        0.7879944048
 H         -2.7046691369        0.7528311072        2.0592868129
 H         -4.0313888341        0.7892255622        0.8979336400
 H         -2.4201952202        1.3069070842       -1.6121791044
 H         -3.6389157126        0.0427615116       -1.5021876037
 H         -2.0117455203       -0.3539595873       -2.0467197090
  31
        -35.71364139
 C          3.7309746607        0.3053101793        0.1533622317
 C          2.2915271157        0.1761526495       -0.3371227773
 H          2.3045651775       -0.0690963562       -1.4055986390
 C          1.5201370253        1.4788942687       -0.1471185099
 C          0.0784044384        1.3380294434       -0.6263467834
 C         -0.6692239448        0.2313758724        0.1256920200
 H         -0.6602371551        0.4692878690        1.1945320065
 C          0.1099812105       -1.0827043647       -0.0681995749
 H          0.1080169834       -1.3211857830       -1.1466616511
 C          1.5596763855       -0.9375758653        0.4061162681
 O         -0.5318141499       -2.1323595597        0.6357546592
 C         -2.1439063366        0.0745220631       -0.3197694805
 C         -2.9882895795       -0.5010492017        0.8187191687
 C         -2.7932569885        1.3783915471       -0.7866443246
 H          4.2457667108        1.0967318276       -0.3857881448
 H          3.7491908613        0.5440443213        1.2143763942
 H          4.2731609679       -0.6247938922        0.0006463531
 H          1.5260893220        1.7480289841        0.9115024180
 H          2.0090739869        2.2833618715       -0.7000580247
 H         -0.4297144023        2.2892281472       -0.4767726790
 H          0.0734506512        1.1116155835       -1.6953137105
 H          1.5521239147       -0.7237993523        1.4775919098
 H          2.0816461251       -1.8865954039        0.2567204302
 H         -0.0141141603       -2.9418835380        0.5309602205
 H         -2.1674131694       -0.6322457128       -1.1572541027
 H         -2.5495131031       -1.4198245710        1.1932483552
 H         -3.9972277405       -0.7126174927        0.4714372699
 H         -3.0492033389        0.2147489901        1.6361614974
 H         -3.8430535458        1.1947803599       -1.0049000405
 H         -2.3264541801        1.7627030770       -1.6886325106
 H         -2.7385567158        2.1350620436       -0.0073835021
  31
        -35.71196110
 C          3.7482222217        0.2312696107        0.0716009331
 C          2.2896081488        0.1698311734       -0.3729537022
 H          2.2567224926       -0.0365797664       -1.4490237349
 C          1.5663207314        1.4848675088       -0.1054670782
 C          0.1184356443        1.3924813904       -0.5694627308
 C         -0.6770306739        0.2802496022        0.1292028595
 H         -0.7204856607        0.4776051068        1.2055580788
 C          0.0686920178       -1.0561571497       -0.0463967219
 H          0.0038244601       -1.3573565683       -1.1066858518
 C          1.5435849257       -0.9376906889        0.3617308794
 O         -0.5418125028       -2.0456323651        0.7664558706
 C         -2.1222811562        0.2762507394       -0.4241198343
 C         -2.9395280240       -0.9564125068       -0.0403373306
 C         -2.8846391658        1.5142208068        0.0563753228
 H          4.2523219583       -0.7100848736       -0.1333551890
 H          4.2717772851        1.0244990964       -0.4562267678
 H          3.8102977259        0.4298383690        1.1392292538
 H          1.5979816964        1.7046609818        0.9637726107
 H          2.0645010321        2.3013737906       -0.6318766463
 H         -0.3672805996        2.3508477309       -0.3917418203
 H          0.1030533210        1.2051779504       -1.6465254611
 H          1.5774118452       -0.7430404263        1.4369803560
 H          2.0343597552       -1.8977589673        0.1788627973
 H         -0.0019618855       -2.8469388560        0.7415356698
 H         -2.0590114766        0.3100006190       -1.5188082161
 H         -3.9669412026       -0.8325302173       -0.3773578543
 H         -2.9390361200       -1.0932161649        1.0376818906
 H         -2.5395039370       -1.8571422485       -0.4937018835
 H         -2.4165071237        2.4368907201       -0.2723535609
 H         -2.9394255460        1.5202036594        1.1427048895
 H         -3.8988380872        1.4984360750       -0.3355969445
  31
        -35.71162343
 C          3.7186758942        0.3104045000        0.2131472246
 C          2.2948839747        0.1687222696       -0.3171923027
 H          2.3411750098       -0.0906653472       -1.3813466379
 C          1.5166445658        1.4741892219       -0.1682327231
 C          0.0799376617        1.3259098361       -0.6624194099
 C         -0.6644248581        0.2325138136        0.1106071357
 H         -0.6251793951        0.4833625883        1.1759934725
 C          0.1142332144       -1.0846657972       -0.0924635878
 H          0.1471654018       -1.3004349017       -1.1728453672
 C          1.5486370489       -0.9411240247        0.4174239936
 O         -0.4522099608       -2.1959570105        0.5847546599
 C         -2.1515178650        0.0690166289       -0.2876214652
 C         -2.9678914576       -0.4009622789        0.9205153027
 C         -2.7989756936        1.3407671092       -0.8376565821
 H          4.2478397695        1.0946187968       -0.3227768746
 H          3.7047661588        0.5646517944        1.2705405449
 H          4.2656766138       -0.6212566162        0.0915485378
 H          1.5080748092        1.7662107436        0.8842934756
 H          2.0144649706        2.2663171422       -0.7310978491
 H         -0.4290931766        2.2805728756       -0.5378508183
 H          0.0864125646        1.0779083035       -1.7265738661
 H          1.5135920887       -0.7288424902        1.4877211848
 H          2.0571220558       -1.8985209085        0.2877606855
 H         -1.2267089189       -2.5056836677        0.0989306426
 H         -2.2106101994       -0.6909225043       -1.0770182977
 H         -3.9644581551       -0.7100713398        0.6126687491
 H         -3.0702614780        0.4154532141        1.6329064918
 H         -2.4853120325       -1.2306662823        1.4289118584
 H         -3.8528294130        1.1498246272       -1.0291035695
 H         -2.3393027118        1.6549983969       -1.7699996603
 H         -2.7291993092        2.1519249862       -0.1168703811
  31
        -35.71135400
 C          3.7245038228        0.1671689665        0.0815650389
 C          2.2551744968        0.3167136214       -0.3021689718
 H          2.1925813197        0.5215715847       -1.3773190737
 C          1.6012649480        1.4727609966        0.4519019059
 C          0.1257127048        1.5935536850        0.0869885821
 C         -0.6456828012        0.3055814382        0.3969985324
 H         -0.5181471992        0.0781292026        1.4614795802
 C          0.0062919881       -0.8474003476       -0.3897734427
 H         -0.0564550590       -0.6307350098       -1.4657340705
 C          1.4843430540       -0.9672487423       -0.0092666555
 O         -0.5783710425       -2.1146086267       -0.1258610368
 C         -2.1589632475        0.5064259067        0.1498317665
 C         -2.5706422472        0.3593338742       -1.3151373860
 C         -3.0013586206       -0.4039406639        1.0462076332
 H          4.2700337036        1.0814740740       -0.1391200087
 H          3.8182326965       -0.0418503207        1.1447829087
 H          4.1820176283       -0.6501764572       -0.4703426161
 H          1.6964928405        1.2988250212        1.5259950192
 H          2.1150928559        2.4068626962        0.2164974571
 H         -0.3176910201        2.4208321336        0.6447014116
 H          0.0356710250        1.8225605397       -0.9773375065
 H          1.5458117162       -1.2087780346        1.0538046865
 H          1.9118705933       -1.8061106816       -0.5621132765
 H         -1.3972226718       -2.1993964623       -0.6296028627
 H         -2.3842724248        1.5395433434        0.4425471796
 H         -2.5043789114       -0.6720991364       -1.6521960550
 H         -1.9459669739        0.9755830526       -1.9569092856
 H         -3.6021211817        0.6823412531       -1.4378548599
 H         -2.8415006343       -0.1518541429        2.0923255539
 H         -2.7399397867       -1.4492777940        0.9117674930
 H         -4.0585474520       -0.2774388997        0.8231732383
  31
        -35.70978874
 C          3.4217937534        0.6744131883        0.2300695911
 C          2.1847829047        0.1926040414       -0.5256498991
 H          2.4941939425       -0.0889166408       -1.5378638685
 C          1.1263027261        1.3023616384       -0.6394770767
 C          0.1322434941        1.2551208949        0.5172788295
 C         -0.6793937412       -0.0522072597        0.5443246558
 H         -0.7890411842       -0.3569248585        1.5934163475
 C          0.1012309573       -1.1848770414       -0.1488733995
 H         -0.0444527483       -1.1478381719       -1.2327369134
 C          1.5919144216       -1.0440204529        0.1639089186
 O         -0.4003863957       -2.4584441418        0.2137047468
 C         -2.1131495877        0.0560280100       -0.0149714698
 C         -3.0239630245        0.8005750894        0.9613375879
 C         -2.1951287522        0.7033850784       -1.3957179410
 H          3.9059982439        1.4857691248       -0.3081813105
 H          3.1489648221        1.0327122858        1.2200135500
 H          4.1368744813       -0.1372121830        0.3430392719
 H          1.6218723588        2.2746803864       -0.6518999327
 H          0.5863974279        1.1992892890       -1.5803244467
 H          0.6845878653        1.3568565068        1.4529840847
 H         -0.5420776377        2.1086708288        0.4528639730
 H          1.7145580694       -0.9604387551        1.2465614832
 H          2.1150946017       -1.9444739044       -0.1632437452
 H         -0.2648037765       -2.5882650912        1.1629902675
 H         -2.4810305219       -0.9739314969       -0.1045001279
 H         -3.0282856742        0.3139984311        1.9339997901
 H         -4.0436197420        0.8180227444        0.5841654834
 H         -2.6932818541        1.8281069459        1.0930931896
 H         -1.5867578438        0.1661153349       -2.1186264090
 H         -1.8689605560        1.7395134199       -1.3639810724
 H         -3.2246474620        0.6837664950       -1.7464643406
  31
        -35.70943004
 C          3.0592796240       -0.0718925096        0.2580155399
 C          1.9489858541        0.1570367651       -0.7669634210
 H          2.4297258660        0.3028965266       -1.7428697260
 C          1.1293399929        1.4110530011       -0.4509039121
 C          0.2213025570        1.2028113318        0.7559670255
 C         -0.7803380458        0.0635841724        0.5359138798
 H         -1.3093440998       -0.0969463953        1.4833786525
 C          0.0233804924       -1.2218282514        0.2670698295
 H         -0.6711253616       -2.0306728595       -0.0094307557
 C          1.0210965849       -1.0576825075       -0.8881716630
 O          0.6461648375       -1.5838906189        1.4909192569
 C         -1.8420642485        0.3418553419       -0.5477560252
 C         -2.9624162486       -0.6998300221       -0.5009944170
 C         -2.4683503024        1.7280029741       -0.3832943690
 H          3.6782174093       -0.9155859598       -0.0403479466
 H          3.6943505079        0.8086904521        0.3262924124
 H          2.6457958349       -0.2786361937        1.2401020295
 H          1.8062336107        2.2458962273       -0.2572711145
 H          0.5243106416        1.6714777127       -1.3215178296
 H          0.8276628394        0.9413589707        1.6241769818
 H         -0.3025983170        2.1272478487        0.9948702588
 H          1.6239497713       -1.9662330910       -0.9664412911
 H          0.4421072919       -0.9716262032       -1.8092647970
 H          1.1172116986       -2.4179541171        1.3661806307
 H         -1.3712076809        0.2938570449       -1.5340299043
 H         -2.5927520691       -1.7025019643       -0.6957547431
 H         -3.7148333502       -0.4710028305       -1.2522002970
 H         -3.4405207121       -0.6938389828        0.4761407363
 H         -3.3046024915        1.8370735774       -1.0702477684
 H         -1.7558364006        2.5184178310       -0.5988260599
 H         -2.8405828697        1.8575047723        0.6305262788
  31
        -35.70921095
 C          3.0639709320       -0.0797924559        0.2331500061
 C          1.9361844975        0.1446575766       -0.7732140074
 H          2.3995484357        0.2794519309       -1.7588416966
 C          1.1240782612        1.4044147074       -0.4591235393
 C          0.2265783853        1.2069610699        0.7569327082
 C         -0.7851798157        0.0750506943        0.5445035921
 H         -1.3363930801       -0.0562271414        1.4857092665
 C          0.0143693937       -1.2195791606        0.2915702022
 H         -0.6760768227       -2.0333264362        0.0201644872
 C          1.0108884228       -1.0742131119       -0.8645272227
 O          0.7191906076       -1.6197559220        1.4573730477
 C         -1.8350492711        0.3505288511       -0.5518314574
 C         -2.9550263159       -0.6923584107       -0.5151558362
 C         -2.4632900715        1.7370222435       -0.3959291713
 H          3.7098251435       -0.8867833806       -0.1060580714
 H          3.6652316679        0.8207742335        0.3377344063
 H          2.6674388509       -0.3576816190        1.2041635189
 H          1.8065457864        2.2372963894       -0.2768578371
 H          0.5137881200        1.6623196429       -1.3266490027
 H          0.8482399980        0.9426676239        1.6141326699
 H         -0.2860320469        2.1365894010        1.0013668590
 H          1.6147030222       -1.9830572912       -0.8986516741
 H          0.4353754809       -1.0197774614       -1.7898519790
 H          0.0840081082       -1.8050055876        2.1611354403
 H         -1.3533953680        0.2996770349       -1.5322347263
 H         -3.6977609676       -0.4655534680       -1.2764059397
 H         -3.4478353607       -0.6842571446        0.4548400535
 H         -2.5818806120       -1.6947124947       -0.7051393210
 H         -3.2875009221        1.8479498240       -1.0968994185
 H         -1.7464063969        2.5269926449       -0.5980344783
 H         -2.8532247967        1.8663960523        0.6114019901
  31
        -35.70904276
 C          3.5407525859        0.5200456135        0.0123096233
 C          2.2000540624        0.0656495995       -0.5615100306
 H          2.3856189854       -0.4007035824       -1.5347454244
 C          1.2422159677        1.2532528275       -0.7591675871
 C          0.2708930562        1.3713679980        0.4100679945
 C         -0.7033527053        0.1824803462        0.4490858027
 H         -1.0812427328        0.0804211301        1.4735896073
 C          0.0593982480       -1.1182335955        0.0949787641
 H         -0.0830773828       -1.3474962867       -0.9676555630
 C          1.5603961112       -0.9778426754        0.3612531646
 O         -0.4614082391       -2.2530487883        0.7652070770
 C         -1.9306700188        0.3694336675       -0.4688558838
 C         -2.9050264913       -0.7991048178       -0.3087374606
 C         -2.6882327207        1.6690392837       -0.1857694395
 H          3.3928294484        1.0508376343        0.9501233442
 H          4.1839933808       -0.3367684103        0.1993258420
 H          4.0478441686        1.1846387665       -0.6830647267
 H          1.8172794794        2.1751040295       -0.8571240222
 H          0.6716566388        1.1244622750       -1.6800058116
 H          0.8391149753        1.4096366928        1.3407381120
 H         -0.2820510290        2.3053052348        0.3403437504
 H          1.7133577469       -0.6983588885        1.4058562740
 H          2.0320643374       -1.9505717685        0.2073309817
 H         -0.3053505575       -2.1515308655        1.7143388342
 H         -1.5833933828        0.3900580469       -1.5080240877
 H         -3.3428887509       -0.7849102515        0.6873369393
 H         -2.4084973219       -1.7548276463       -0.4457271239
 H         -3.7088992114       -0.7212467580       -1.0373865483
 H         -3.6414022546        1.6553617179       -0.7091733075
 H         -2.1401516604        2.5431028317       -0.5255243919
 H         -2.8858036598        1.7701717281        0.8791807445
  31
        -35.70894583
 C          3.7469241786        0.2079849890        0.0696140637
 C          2.2886551519        0.1738586031       -0.3778471127
 H          2.2564446997        0.0098275191       -1.4611641021
 C          1.5726494553        1.4820799680       -0.0600511532
 C          0.1275888824        1.4052636552       -0.5325219409
 C         -0.6773216752        0.2827796991        0.1401573782
 H         -0.7005214944        0.4503631529        1.2226693431
 C          0.0566065643       -1.0589193212       -0.0749521538
 H         -0.0233273529       -1.3489291114       -1.1347468613
 C          1.5377340245       -0.9560086315        0.3134087372
 O         -0.4291878305       -2.1036656409        0.7542823204
 C         -2.1280252587        0.3599535804       -0.4027762380
 C         -2.9521718400       -0.9247113595       -0.3093394380
 C         -2.8935945908        1.4654526693        0.3294714846
 H          4.2415108889       -0.7308697694       -0.1669619598
 H          4.2783336793        1.0143949959       -0.4299917175
 H          3.8091276010        0.3675204310        1.1436516958
 H          1.6032655528        1.6604544807        1.0167340643
 H          2.0744638204        2.3159277583       -0.5549515552
 H         -0.3618757897        2.3616355155       -0.3475450122
 H          0.1228444412        1.2343983309       -1.6126181454
 H          1.5764504384       -0.8147395148        1.3960109928
 H          2.0032359737       -1.9193449162        0.0954612598
 H         -1.2935252986       -2.4018479923        0.4471864201
 H         -2.0659036504        0.6272767595       -1.4644529372
 H         -3.9624482328       -0.7226950966       -0.6609775945
 H         -3.0218204148       -1.2662944806        0.7206897984
 H         -2.5425777833       -1.7078751033       -0.9430929487
 H         -3.8767329768        1.6002128956       -0.1154680300
 H         -2.3706841143        2.4161236049        0.2830773908
 H         -3.0254150858        1.1979140158        1.3758212984
  31
        -35.70836321
 C          3.4221192632        0.6717866446        0.2277632398
 C          2.1785449807        0.2088718761       -0.5287782542
 H          2.4796900887       -0.0470296925       -1.5506209169
 C          1.1197035404        1.3209399757       -0.6054425443
 C          0.1293326421        1.2362027123        0.5522235259
 C         -0.6809398664       -0.0708209387        0.5376910544
 H         -0.7970121394       -0.4204903043        1.5704597380
 C          0.1021060896       -1.1884537733       -0.1705274585
 H         -0.0476007299       -1.1306813891       -1.2591558748
 C          1.5939176997       -1.0454687852        0.1349572148
 O         -0.4204473287       -2.4210412717        0.2995349934
 C         -2.1105912957        0.0544336570       -0.0286445886
 C         -3.0224816821        0.7819794683        0.9591256073
 C         -2.1857220676        0.7316836787       -1.3956301919
 H          3.9008341424        1.4975041549       -0.2933276060
 H          3.1568103230        1.0032451787        1.2289341028
 H          4.1389527509       -0.1415827065        0.3142246007
 H          1.6148220427        2.2934338997       -0.5889331235
 H          0.5768164942        1.2472125044       -1.5473756788
 H          0.6830011484        1.3077579352        1.4897096597
 H         -0.5469571818        2.0896492197        0.5163430004
 H          1.7142697995       -0.9922285511        1.2188158441
 H          2.1310129545       -1.9309502567       -0.2122290157
 H          0.0525959530       -3.1498522340       -0.1234918227
 H         -2.4820519002       -0.9719082525       -0.1338654950
 H         -3.0293120490        0.2728514820        1.9199421544
 H         -4.0409365718        0.8099836553        0.5790952491
 H         -2.6897863773        1.8054019501        1.1149277294
 H         -1.8656344327        1.7685071319       -1.3363107449
 H         -3.2127610660        0.7151859585       -1.7537648520
 H         -1.5690506371        0.2163167743       -2.1274235220
  31
        -35.70828611
 C          3.4893464487        0.4847854607        0.3578126298
 C          2.1896555344        0.3586322397       -0.4346763973
 H          2.4374815521        0.3950135614       -1.5007740972
 C          1.2242547985        1.5130026413       -0.1244482920
 C          0.2691101855        1.1535946092        1.0101053131
 C         -0.6634992079       -0.0253869270        0.6607997338
 H         -0.7779098733       -0.6387153538        1.5645691007
 C          0.0045253048       -0.9303753866       -0.3938150612
 H         -0.1721992406       -0.5477225367       -1.4027045247
 C          1.5138203959       -0.9845529064       -0.1349012829
 O         -0.5438249260       -2.2360817150       -0.4212759004
 C         -2.0884054129        0.4515829291        0.2998358764
 C         -2.1671382781        1.2850400134       -0.9775196640
 C         -3.0648525215       -0.7212821947        0.2121946472
 H          4.0219656718        1.3898351533        0.0755798963
 H          3.2836752899        0.5252998298        1.4250123794
 H          4.1356026796       -0.3682773252        0.1642598746
 H          1.7947498587        2.4017962385        0.1506750624
 H          0.6501784183        1.7561379180       -1.0180178644
 H          0.8614820204        0.9013049185        1.8912951635
 H         -0.3327971362        2.0258374912        1.2696167210
 H          1.6766598690       -1.2565350195        0.9110070383
 H          1.9493091857       -1.7706956555       -0.7548678561
 H         -0.3737249757       -2.6616416318        0.4303628881
 H         -2.4145038290        1.0907043181        1.1310539001
 H         -1.8839832872        0.6967280135       -1.8465079820
 H         -1.5263596883        2.1599124587       -0.9175221588
 H         -3.1896832044        1.6259606583       -1.1249772775
 H         -4.0683330988       -0.3581663006        0.0018258888
 H         -3.0910740914       -1.2705855179        1.1506582153
 H         -2.7709016725       -1.4061975685       -0.5783374586
