! r2scan-3c def2/J RI DEFGRID2 scfconv6 printgap
%output
    printlevel normal
end
* xyz 0 1
C 3.7309746607 0.3053101793 0.1533622317
C 2.2915271157 0.1761526495 -0.3371227773
H 2.3045651775 -0.0690963562 -1.405598639
C 1.5201370253 1.4788942687 -0.1471185099
C 0.0784044384 1.3380294434 -0.6263467834
C -0.6692239448 0.2313758724 0.12569202
H -0.6602371551 0.469287869 1.1945320065
C 0.1099812105 -1.0827043647 -0.0681995749
H 0.1080169834 -1.321185783 -1.1466616511
C 1.5596763855 -0.9375758653 0.4061162681
O -0.5318141499 -2.1323595597 0.6357546592
C -2.1439063366 0.0745220631 -0.3197694805
C -2.9882895795 -0.5010492017 0.8187191687
C -2.7932569885 1.3783915471 -0.7866443246
H 4.2457667108 1.0967318276 -0.3857881448
H 3.7491908613 0.5440443213 1.2143763942
H 4.2731609679 -0.6247938922 0.0006463531
H 1.526089322 1.7480289841 0.911502418
H 2.0090739869 2.2833618715 -0.7000580247
H -0.4297144023 2.2892281472 -0.476772679
H 0.0734506512 1.1116155835 -1.6953137105
H 1.5521239147 -0.7237993523 1.4775919098
H 2.0816461251 -1.8865954039 0.2567204302
H -0.0141141603 -2.941883538 0.5309602205
H -2.1674131694 -0.6322457128 -1.1572541027
H -2.5495131031 -1.419824571 1.1932483552
H -3.9972277405 -0.7126174927 0.4714372699
H -3.0492033389 0.2147489901 1.6361614974
H -3.8430535458 1.1947803599 -1.0049000405
H -2.3264541801 1.762703077 -1.6886325106
H -2.7385567158 2.1350620436 -0.0073835021
*
