! pbe def2-sv(p) def2/J RI DEFGRID1 loosescf d4 GCP(DFT/SV(P)) printgap
%output
    printlevel normal
end
* xyz 0 1
C -2.5359213278 0.631332651 0.0662829881
C -1.3925620224 -0.3374420983 -0.1726219848
O -0.1723873972 0.4135112942 -0.2866053397
C 0.9708068719 -0.1670359091 0.0543720453
O 1.046793258 -1.3111226309 0.4552693816
C 2.132435365 0.7641133252 -0.121812741
H -3.4685065427 0.0794348849 0.1239603119
H -2.3823582637 1.1716310403 0.9959834503
H -2.5904587928 1.3460888293 -0.7494198526
H -1.5320504086 -0.8926445795 -1.1055016461
H -1.2847248843 -1.0546378287 0.647564717
H 3.0364304297 0.2945108842 0.2510694773
H 1.9342803806 1.6913138511 0.4081659231
H 2.2412967163 0.9955344855 -1.1783087355
*
