! wb97x-v def2-tzvp def2/J RIJCOSX DEFGRID2 scfconv7 GCP(DFT/TZ) printgap
%output
    printlevel normal
end
* xyz 0 1
C -1.963084135130531 0.7218203741583296 1.3079919922861278
C -1.4142053748409373 0.3110173156633729 -0.061215927349389646
C -2.5424901630346124 -0.25523743365370216 -0.9262073331397935
C -0.2560210764314942 -0.7045147047092357 0.06790674900110744
C 1.1790577868255085 -0.15055575660773138 -0.07509869689979955
C 1.4113188397290524 0.35837993258275114 -1.503621587304811
C 1.447782765272478 0.9827380378406659 0.9212811994668495
C 2.159757289531546 -1.2971240590449 0.2026342452159719
H -2.734448540555411 1.494490940991801 1.209971536611434
H -2.416777290096575 -0.1428294936177689 1.8087138217577798
H -1.1770604355607766 1.110692447299565 1.9627156057765798
H -1.0375370224709342 1.214215135307085 -0.5587669597139959
H -2.187426571962328 -0.49322602630551937 -1.935312845543213
H -2.9413227264581576 -1.1776947746968245 -0.48494638254481875
H -3.370806518007322 0.4570261893729233 -1.017031038905754
H -0.33706939015747595 -1.211667723060184 1.0401188105291206
H -0.3736438805242878 -1.4871844445975497 -0.6941557797475207
H 2.439677998847228 0.7201182627942023 -1.619914363476992
H 0.739651728867127 1.1859546774667977 -1.7560710639147994
H 1.250068006478507 -0.4434472472352455 -2.2339055943106123
H 0.7889264076490329 1.8401252115771956 0.7465959035866097
H 2.4819619108889324 1.3341721156166628 0.8250807367342741
H 1.3011153832658702 0.6440735170132894 1.9535203727279336
H 1.992846857425871 -2.1321164127723202 -0.48809701309163805
H 2.0414249495026633 -1.6744723289426713 1.225017007189723
H 3.1967517483151835 -0.9621137969350385 0.08323833899838323
*
