! r2scan-3c def2/J RI DEFGRID2 scfconv6 printgap
%output
    printlevel normal
end
* xyz 0 1
C -2.5642048504 -0.8718259181 0.29360333
C -1.1347082529 -0.4266184282 0.6335259905
H -1.0282682967 -0.3403516932 1.7251771374
C -0.8223918791 0.9396522555 0.0106958633
H -1.0645364043 0.8935095566 -1.0638991832
C 0.6677226052 1.2903738123 0.1798040963
H 0.8769912102 1.4544718884 1.2436627473
C 1.5434055029 0.1376503639 -0.3165984301
H 1.4018515522 0.0054997775 -1.4016091522
C 1.0967130724 -1.1671295785 0.367707615
H 1.2716230279 -1.0694569846 1.4598263243
O -0.2660339607 -1.4281145108 0.1364065497
O 1.8360767856 -2.2002760792 -0.1725388116
O 2.8841257012 0.4224623542 -0.0215801343
O 0.9556269082 2.516730894 -0.4417826811
O -1.6294251078 1.8967633065 0.648560233
O -2.7398954304 -1.0776164604 -1.0828287349
H -3.2526627958 -0.0781471451 0.586057168
H -2.7932779034 -1.7854761263 0.8546012766
H 1.4835442702 -3.0532470786 0.1255190103
H 3.4298238115 -0.3367049971 -0.2780849272
H 1.032317288 2.39557727 -1.3994381031
H -1.2993216292 2.778005698 0.411075031
H -2.1139034851 -1.7598675973 -1.3680174958
*
