! pbe def2-sv(p) def2/J RI DEFGRID1 loosescf d4 GCP(DFT/SV(P)) printgap
%output
    printlevel normal
end
* xyz 0 1
C -2.3623641566 -1.0092318422 0.3679407341
C -1.0894370993 -0.2520832462 0.795550719
H -1.3128691331 0.2255929358 1.7577553498
C -0.6753792194 0.850052018 -0.1854632047
H -0.6786710104 0.4701581321 -1.2190802208
C 0.7577997941 1.2913004874 0.1671439731
H 0.7807336133 1.5601753462 1.2306300003
C 1.7340403158 0.1296564522 -0.0854884037
H 2.0874158505 0.1612747874 -1.1220952489
C 0.9923998452 -1.2203782892 0.0852848204
H 1.6999923473 -1.9655751893 0.4855402352
O -0.016250018 -1.1605229127 1.0553970979
O 0.528187407 -1.6058575698 -1.1703432234
O 2.8901089618 0.2066125733 0.7020980027
O 1.0931582497 2.4744382753 -0.5124924956
O -1.5815224411 1.9178604204 -0.0679470603
O -2.2505041829 -1.6904505823 -0.8587504639
H -3.1876700147 -0.2918478681 0.3539378116
H -2.5602231542 -1.776725935 1.1196205519
H -0.2011312215 -2.2459748786 -1.0701992698
H 2.6570191168 0.169041121 1.6412062081
H 1.3224982416 2.2783745254 -1.4326576095
H -1.103756558 2.7388919413 -0.2749241997
H -2.3687921201 -1.0680693599 -1.5889113592
*
