! wb97x-v def2-tzvp def2/J RIJCOSX DEFGRID2 scfconv7 GCP(DFT/TZ) printgap
%output
    printlevel normal
end
%cpcm
    smd true
    smdsolvent "water"
end
* xyz 0 1
C -2.6669064295185447 0.5887433453134945 0.7566356197871218
C -1.8512498851857941 0.5946258050576211 -0.5427272181179927
C -0.3811161198976356 0.3884930752588484 -0.29456779166366165
C 0.5020878780561973 1.4675148270262763 -0.22741535193589643
C 1.8589832338222108 1.293414558093088 0.03881541644135296
C 2.356639316869922 0.008601629738813042 0.2399337797193345
C 1.50062310482349 -1.0872038488167313 0.17996563322442646
C 0.14418644059793978 -0.89469141968272 -0.08023255193024188
O -0.732476427333131 -1.95587886056563 -0.14170577288216996
H -3.7318927184316006 0.7297286199005635 0.5461662398927303
H -2.3402448197299597 1.3966940681950164 1.419467450840268
H -2.549106254936999 -0.35774138243498954 1.2933941820400763
H -1.9892400131431425 1.5536775710429693 -1.0524240987565012
H -2.2297670755691383 -0.18505731841068004 -1.2123859010505904
H 0.10744230350169387 2.467395462616397 -0.3902098889972275
H 2.5206942525678557 2.1523175806626997 0.0827736587611466
H 3.411487312806296 -0.14758336706889322 0.4430821483882668
H 1.8773079817088973 -2.095488316593769 0.3330913032101048
H -0.24520402969169866 -2.7749687377350734 0.024009007911994656
*
