! pbe def2-sv(p) def2/J RI DEFGRID1 loosescf d4 GCP(DFT/SV(P)) printgap
%output
    printlevel normal
end
* xyz 0 1
C -1.9984551351 -0.2070415626 -0.9777600559
C -1.3735851518 -0.1807614739 0.4353586811
H -2.1665070001 -0.3730476746 1.171185365
C -0.7354286887 1.1841470253 0.7264114318
H -1.4518237112 1.9681030841 0.4446867683
C 0.5277566204 1.4170925162 -0.1228133222
H 1.2171603234 2.0138089895 0.4916935179
C 1.2427273283 0.096947241 -0.4531555987
H 0.8863661256 -0.2786438484 -1.4262369649
C 0.9070291854 -0.9541811767 0.6178269102
H 1.2279968744 -0.5738217823 1.6017274712
O -0.4617700359 -1.2618393096 0.6189309524
O 1.6116041924 -2.1296356673 0.4008140131
O 2.627853911 0.3308855808 -0.50591191
O 0.1514893248 2.1186361475 -1.2811349718
O -0.3615431327 1.3073423505 2.0778740788
O -2.2827491292 -1.5066503568 -1.4222199143
H -1.3116832562 0.2186820426 -1.7099952782
H -2.9054230595 0.4113788118 -0.9609689734
H 1.116049808 -2.681908865 -0.2252349202
H 3.0890159911 -0.5176903006 -0.4096809542
H 0.9484328756 2.3959367419 -1.7562268174
H -1.1500858428 1.3230741854 2.6403594793
H -2.8551807861 -1.9511672888 -0.780649963
*
