! wb97x-v def2-tzvp def2/J RIJCOSX DEFGRID2 scfconv7 GCP(DFT/TZ) printgap
%output
    printlevel normal
end
%cpcm
    smd true
    smdsolvent "water"
end
* xyz 0 1
C -2.5524578281895547 -0.9412027219354344 0.36482247650199257
C -1.1393013334438216 -0.44775146938856375 0.6076186502652626
H -0.9818023622223423 -0.38010351945424786 1.6982201200984333
C -0.8422711141590238 0.913369579381575 -0.02841845944311069
H -1.0509584021968326 0.8675310542726713 -1.1027110871561072
C 0.6255979480009166 1.2662888169273456 0.18858431363870296
H 0.7976762313120593 1.4010779227329024 1.2700609823571023
C 1.5324843193345783 0.15129502844081855 -0.31071233711053614
H 1.4158559875688976 0.049259795162448466 -1.4026135015669237
C 1.1288459184129247 -1.1700545029716651 0.33798254013030177
H 1.2786107929009585 -1.1304384038890893 1.4271573863875946
O -0.2478158602262817 -1.4332252791244389 0.04964954378999181
O 1.8807453845589672 -2.256200868254556 -0.13169914123291512
O 2.8988701452368475 0.3970677185794747 0.02891414112093216
O 0.9941252822940316 2.45778295627584 -0.5154512816924472
O -1.6922748912589909 1.9374973865943559 0.49765308372962797
O -2.8894737040605065 -1.0207893329445525 -1.0250155798750462
H -3.2571880178005044 -0.2413162950440602 0.8208366772403582
H -2.673634022926457 -1.9190485803968793 0.850016171957166
H 1.897106504660844 -2.2179061306289345 -1.100053662232777
H 3.1356018030720527 1.2563337615593133 -0.34587664861517853
H 0.46416397833501544 3.1796911557717165 -0.1508361452063658
H -1.5338725192107876 1.988552404845477 1.4518791394477486
H -2.303515973750485 -1.6752226056122157 -1.4278161592504235
*
