! r2scan-3c def2/J RI DEFGRID2 scfconv6 printgap
%output
    printlevel normal
end
%cpcm
    smd true
    smdsolvent "water"
end
* xyz 0 1
C 3.6840151918 -0.282406667 0.1443408766
C 2.2054808146 -0.1873679805 0.0052339303
C 1.5605149489 0.9892738482 -0.0319952745
C 0.1260988804 1.1229646385 -0.216201883
O -0.4142135586 2.2253877588 -0.2536361325
C -0.6484012092 -0.1682316862 -0.4242229729
H -0.5350630931 -0.390182279 -1.4956243619
C 0.0098237906 -1.2990128261 0.3653530399
C 1.4532087197 -1.4750591436 -0.0934244347
C -2.1511238275 0.0287846775 -0.1538253299
C -2.9843952423 -1.1023710645 -0.7515356747
C -2.4513437222 0.1853129279 1.3358112686
H 4.1524541131 0.6955708841 0.0871531572
H 4.0898927753 -0.9241324214 -0.6352598895
H 3.9328606269 -0.7368147967 1.1024111149
H 2.1003126699 1.9226494882 0.0550479209
H 0.0008712909 -1.0547514162 1.4286678561
H -0.5439007563 -2.225884557 0.2185868515
H 1.952704061 -2.2437401793 0.4977302312
H 1.4679053305 -1.8034106042 -1.1379334787
H -2.4301749228 0.9661601532 -0.6505734977
H -2.7696866391 -2.0456713766 -0.2559361413
H -2.7825255125 -1.2117426558 -1.8144726025
H -4.0426955887 -0.8880765001 -0.6253684736
H -1.8310347051 0.9690848961 1.7661576249
H -2.2733492693 -0.7437605184 1.8709087646
H -3.4930493864 0.4643393945 1.4752481726
*
