! wb97x-v def2-tzvp def2/J RIJCOSX DEFGRID2 scfconv7 GCP(DFT/TZ) printgap
%output
    printlevel normal
end
* xyz 0 1
C -3.6587530798198067 0.041395192437670356 0.011878833942681263
C -2.160833206354095 0.014934583539571127 -0.009544217897495802
C -1.4256236357097987 1.2060774781522237 -0.011249764215790551
C -0.038253017839575396 1.1899432954813123 -0.004521652742441638
C 0.6593766148597056 -0.026445000547644298 0.001108927443177673
C -0.07461635236672644 -1.2208671865706586 8.885877944843354e-07
C -1.4601203366267088 -1.197945459859167 -0.006019517307051092
C 2.141937664372577 -0.08127483178797673 0.00447225954175898
O 2.7307013910986644 -1.1653081780529595 0.003291017218171379
C 2.917065231135599 1.2049986157927925 0.007610836668623367
H -4.048797880301357 0.8399383099807558 -0.6256980105272598
H -4.078506085441691 -0.9128271681625834 -0.3152055792651065
H -4.021401567511096 0.23453247903574623 1.0288360090919895
H -1.9517772950238603 2.15639798211027 -0.018828437886421138
H 0.49982714805983064 2.131280778241397 -0.007107502957014993
H 0.45264987102728665 -2.1688191289649095 0.0009862036708776982
H -2.014811433985548 -2.1318526542632776 -0.00985787183084363
H 3.9854861498652365 0.9877456440863102 0.012452520263595808
H 2.6602208663163007 1.8058610128707968 0.8866695354038658
H 2.6686557060389444 1.8053985680665592 -0.8742407228482371
*
