! pbe def2-sv(p) def2/J RI DEFGRID1 loosescf d4 GCP(DFT/SV(P)) printgap
%output
    printlevel normal
end
* xyz 0 1
C -3.3230927972 0.4532285844 -0.311622784
C -1.8593813565 0.5145100042 -0.0165648396
C -1.0919940751 1.5807465608 -0.2103780111
C 0.3678298994 1.4920300935 0.0957256539
C 0.9563860516 0.2399015374 -0.587522187
H 0.9422474809 0.4318843503 -1.6646212979
C 0.0890639704 -1.0063868497 -0.313833037
C -1.1642650997 -0.7126470851 0.5299343551
H -0.8447860929 -0.4979114946 1.5658620546
O -1.9491267829 -1.8887417351 0.5207780337
C 2.3899132909 0.0037233024 -0.1791470946
C 3.3507470455 -0.0991042678 -1.0846290908
C 2.6786377775 -0.1079585171 1.2883928926
H -3.5432504205 -0.4217452053 -0.9213742521
H -3.6373394832 1.347140156 -0.8429352892
H -3.8996416616 0.3796092422 0.610540243
H -1.4908466725 2.5041696502 -0.6012205305
H 0.9001123406 2.3777237274 -0.2507611145
H 0.506502878 1.4107986685 1.1766973685
H -0.2619874381 -1.4330577465 -1.2542077933
H 0.6666418168 -1.7823383067 0.18998213
H -2.7148873043 -1.7630373683 1.0963262809
H 4.3758221356 -0.2813104945 -0.8086415548
H 3.1536675348 -0.005742335 -2.139218818
H 3.6347508198 -0.5972868255 1.4529872071
H 2.7256571665 0.8841401182 1.7361890519
H 1.9006619078 -0.6716236115 1.7976443778
*
