! pbe def2-sv(p) def2/J RI DEFGRID1 loosescf d4 GCP(DFT/SV(P)) printgap
%output
    printlevel normal
end
* xyz 0 1
C -2.0591003832 -1.2130651984 -0.2602532175
C -1.2739208602 -0.3549309362 0.7551097025
H -1.8989129783 -0.2277328207 1.645127414
C -0.9433029272 1.0479402859 0.1883744071
H -1.2677203034 1.0887806739 -0.8618028998
C 0.5740720287 1.3031519169 0.2188284889
H 0.8965226042 1.4250920176 1.2576470422
C 1.2855646015 0.0927257922 -0.4040751748
H 0.8828820324 -0.064418742 -1.4154273629
C 0.9893579041 -1.1585726939 0.4474761616
H 1.8252241836 -1.3036602817 1.1467315225
O -0.1299173691 -1.0249924722 1.279541715
O 0.8715016534 -2.2550342253 -0.4182325529
O 2.6643116378 0.3507333257 -0.4544712774
O 0.915243241 2.5024160046 -0.4137307969
O -1.5587195825 2.0691304949 0.9367972213
O -1.4835951423 -1.2641375096 -1.5421201714
H -3.0472761722 -0.7693159344 -0.3960690893
H -2.179170475 -2.2194860085 0.1566131567
H 0.8611569828 -3.0827597455 0.0870966949
H 3.1001786631 -0.2990074322 -1.0248644512
H 0.6865358838 2.4557014862 -1.3544337221
H -2.4925459617 2.1440882816 0.6965987499
H -0.6576448293 -1.7799858889 -1.4858210934
*
