! r2scan-3c def2/J RI DEFGRID2 scfconv6 printgap
%output
    printlevel normal
end
%cpcm
    smd true
    smdsolvent "water"
end
* xyz 0 1
C -1.9809144621 -0.9482855999 0.5785558366
C -1.4420201818 -0.0133532807 -0.5027820532
C -0.0225858259 0.4178754436 -0.2336452328
O 0.3662707201 1.5675045615 -0.2897188919
O 0.7613019855 -0.6111678768 0.0547404676
C 2.1454267629 -0.3800483183 0.3306239539
H -2.9964529125 -1.2436743392 0.3325108265
H -1.3618014767 -1.8375980255 0.6514943988
H -1.98903981 -0.4484137622 1.5438651739
H -2.0523618282 0.8858342041 -0.5863695151
H -1.4462005288 -0.528614801 -1.4654323134
H 2.3887799535 0.6687203325 0.1571517874
H 2.7201149984 -1.0234586669 -0.332296642
H 2.3306593161 -0.6448247415 1.3704346963
*
