! wb97x-v def2-tzvp def2/J RIJCOSX DEFGRID2 scfconv7 GCP(DFT/TZ) printgap
%output
    printlevel normal
end
* xyz 0 1
C 2.1473044561739836 0.06942709600914489 -0.25241476569690086
C 0.7617825401072256 0.0886594409220062 0.3544671824752198
H 0.8366622565558607 0.10895511098795191 1.4526622497285475
C -0.14125034768569525 1.2228916656427744 -0.11818445325067506
C -1.5351106071201155 0.6230183731754275 0.06514491500279429
C -1.307922400858932 -0.8137625998970229 -0.3872610748581681
O 0.05731147887929061 -1.1356869425749039 -0.017853494651367093
H 2.6902726441873304 0.9768728059547306 0.03206328250689794
H 2.7207339251241662 -0.7927765994837027 0.10167891410863493
H 2.0862015393165336 0.028097302460321473 -1.345035367015654
H 0.01868308193013755 2.138896094044682 0.45611820474909626
H 0.049773766884596664 1.4336182590164643 -1.1775867911080489
H -1.8260301788210087 0.6514397474805206 1.120826142606974
H -2.3066633476914253 1.1251629504434821 -0.5239979854356615
H -1.9782057704727882 -1.5347234361559883 0.09234456039381476
H -1.4129107107844845 -0.9058539594192436 -1.4774069022566705
*
