! r2scan-3c def2/J RI DEFGRID2 scfconv6 printgap
%output
    printlevel normal
end
* xyz 0 1
C -2.7423848463 0.6812369026 0.7746512311
C -1.7537900634 -0.0987360642 -0.0400006822
O -2.0838347654 -0.7774116083 -0.9933542952
C -0.309236293 0.0386060355 0.3922268802
C 0.3278897029 1.1560333467 -0.4519734755
C 1.7976356774 1.3302060099 -0.0824420184
C 2.5606444858 0.0252692843 -0.2864843657
C 1.9335642071 -1.0891317928 0.5453590357
C 0.4628975573 -1.2660552923 0.1831394712
H -2.3844972043 1.6953371782 0.9285946527
H -3.7137987336 0.6911505558 0.2883054293
H -2.8351281099 0.2062983805 1.7494142873
H -0.2692279026 0.3278144567 1.445648448
H 0.241058054 0.889906119 -1.5080512071
H -0.2095121892 2.0932801714 -0.2954054208
H 2.2344837379 2.1182427634 -0.6980435609
H 1.8746135152 1.6361702727 0.9628812123
H 2.5294302802 -0.2509941226 -1.3426647455
H 3.6064242172 0.1575284024 -0.0039546128
H 2.466108803 -2.0264072426 0.3762595067
H 2.0175629924 -0.8417625311 1.6059481789
H 0.3669212669 -1.566319687 -0.8625575553
H 0.0170350172 -2.0541196865 0.7944236394
*
