! pbe def2-sv(p) def2/J RI DEFGRID1 loosescf d4 GCP(DFT/SV(P)) printgap
%output
    printlevel normal
end
* xyz 0 1
C -3.1086339172 0.3031699549 0.6097823349
C -1.5884738911 0.3589408326 0.4539628223
H -1.1411869536 0.3877435532 1.4561252656
C -1.1226437117 1.5856706336 -0.3245639691
C 0.4004899397 1.6693822281 -0.3319206521
C 1.0694693132 0.3523790257 -0.8013417933
H 1.6562793877 0.5588801831 -1.7019704865
C 0.0338082436 -0.7112672692 -1.1874339657
C -1.0662495055 -0.9083796108 -0.1848630278
O -1.5272657932 -2.0071203601 0.0688896683
C 2.041000564 -0.1252335252 0.2556909446
C 1.7659410663 -1.0632010033 1.1472792146
C 3.3629847287 0.5830474864 0.2349854703
H -3.3975110199 -0.6272523546 1.0927947689
H -3.4598402348 1.1381041512 1.2091685709
H -3.5882674654 0.3451376694 -0.3656847821
H -1.5097285582 1.5405995245 -1.3437989121
H -1.5292663571 2.4839578596 0.1423409497
H 0.7109926013 2.4953674926 -0.9718454712
H 0.7353111545 1.8943538165 0.6827850412
H -0.4622115506 -0.3983183279 -2.1105132729
H 0.5209673678 -1.6680979783 -1.3826341913
H 2.4840510118 -1.3535425789 1.8959172768
H 0.8285843633 -1.5914418863 1.1752600316
H 3.9015814111 0.3346013414 -0.6785272656
H 3.2173637797 1.6613196597 0.2511173811
H 3.973011779 0.2954892123 1.0863048054
*
