! pbe def2-sv(p) def2/J RI DEFGRID1 loosescf d4 GCP(DFT/SV(P)) printgap
%output
    printlevel normal
end
* xyz 0 1
C -3.7682080245 0.9161059752 -0.0275293056
O -2.3405139451 0.9123043926 -0.029594663
C -1.716848079 -0.2677919879 0.012545965
O -2.31747579 -1.3296788076 0.0458612557
C -0.2526033441 -0.1453451246 0.0060644159
C 0.3845917186 1.0975704807 -0.0191275429
C 1.758321603 1.1712051695 -0.0233358405
C 2.5278380474 0.0047375667 -0.0029898859
C 1.8939251466 -1.237845073 0.0221130062
C 0.5181958416 -1.3081539437 0.0271266669
O 3.8677132834 0.133735555 -0.0083415736
H -4.0686687452 1.8161781197 -0.556446082
H -4.1281189866 0.9370525674 1.0017186483
H -4.1453605221 0.0214479663 -0.5249619567
H -0.2097513081 1.9965877988 -0.034666572
H 2.2672249842 2.1213334429 -0.0421633996
H 2.4794893485 -2.1446360124 0.0377885241
H 0.0112977434 -2.2609888923 0.0467220469
H 4.3080226225 -0.7311266833 0.0073705918
*
