! pbe def2-sv(p) def2/J RI DEFGRID1 loosescf d4 GCP(DFT/SV(P)) printgap
%output
    printlevel normal
end
* xyz 0 1
C -2.423918654 -0.8618707911 0.3529639762
C -0.9644720265 -0.4426455166 0.5740227859
H -0.7150684982 -0.6039898486 1.6338288647
C -0.7374916774 1.0461503443 0.2469358942
H -1.5232108469 1.3828030575 -0.4417070888
C 0.630238982 1.2409277865 -0.4588723179
H 0.9387395244 2.2859177947 -0.3394806861
C 1.6760806826 0.3415496545 0.217249216
H 2.6332740833 0.4209905117 -0.3107757804
C 1.2316527254 -1.1409204041 0.1029757102
H 1.4046869614 -1.6214146626 1.0876185071
O -0.1401825492 -1.2673205872 -0.2298284743
O 1.9620051395 -1.7432757126 -0.9003946992
O 1.9114636615 0.719647251 1.5481572751
O 0.55107996 1.0250685614 -1.8412567259
O -0.7799930686 1.746612805 1.4720680538
O -2.8790116025 -0.5960807322 -0.9470407404
H -3.0560608918 -0.2800529725 1.0259119505
H -2.5218263509 -1.9266981237 0.593297482
H 1.6898865796 -2.6690815733 -1.0038572347
H 1.0830794733 1.0444744363 1.9447762787
H 0.4805831569 0.0740573383 -2.0120038275
H -0.9532895636 2.6853534414 1.3145928108
H -2.3817409532 -1.1443809882 -1.569892722
*
