! r2scan-3c def2/J RI DEFGRID2 scfconv6 printgap
%output
    printlevel normal
end
* xyz 0 1
C 2.1951199041 0.4804873299 0.1372741477
C 1.2339064717 -0.5977685777 -0.3487702943
C -0.1109806988 -0.5572563537 0.3627644716
H 0.0292614704 -0.5081706719 1.4448213222
C -1.0130005874 -1.7173120028 -0.0136997151
Cl -0.9623745089 0.9909762897 -0.0555385153
H 2.3888732521 0.3677643323 1.2014039155
H 1.776406508 1.469582306 -0.0325887165
H 3.1387873949 0.4101744397 -0.3963476021
H 1.6711442252 -1.5811223771 -0.1657445097
H 1.0737067879 -0.4929601188 -1.4232066892
H -0.5486029892 -2.6485875343 0.3001796804
H -1.9793178981 -1.6263526278 0.4751320245
H -1.1672292063 -1.7450134097 -1.0894412011
*
