! pbe def2-sv(p) def2/J RI DEFGRID1 loosescf d4 GCP(DFT/SV(P)) printgap
%output
    printlevel normal
end
* xyz 0 1
C -2.2164503497 -0.6535226399 -0.8893024475
C -1.1606300156 -0.6108089576 0.2275259947
H -1.5636175136 -1.0497677639 1.15587677
C -0.7542082655 0.8336995891 0.569049997
H -1.6227402007 1.473058837 0.3479033222
C 0.4413105421 1.3023878997 -0.2859862193
H 0.818251468 2.2504108671 0.1266748358
C 1.6165841299 0.3106299602 -0.2106783166
H 1.9681834238 0.152123695 -1.2419835742
C 1.1570590038 -1.0485651609 0.3588537408
H 1.0687581143 -0.9683864631 1.4540653259
O -0.0757921613 -1.4067505072 -0.2180053428
O 2.0726236252 -2.054159072 0.1020848624
O 2.6290225256 0.8803559788 0.5796925511
O 0.084549184 1.4561235168 -1.6376195541
O -0.4591008997 0.8780712636 1.946888407
O -3.3826893223 0.0548185272 -0.5645703091
H -2.4266805193 -1.7032172815 -1.1195821834
H -1.7955676386 -0.1803310416 -1.7785513899
H 1.9526675251 -2.3625652094 -0.809983723
H 3.3439831528 0.2364882316 0.6913602727
H -0.4981535396 2.223025894 -1.7361350408
H -0.2508944965 1.7853082071 2.2129683411
H -3.862715333 -0.4103602498 0.1354048714
*
