! pbe def2-sv(p) def2/J RI DEFGRID1 loosescf d4 GCP(DFT/SV(P)) printgap
%output
    printlevel normal
end
* xyz 0 1
C -2.549125733 -0.6703403376 -0.3782753931
C -1.1738452303 -0.3105810711 0.1983552646
H -1.2360870307 -0.2506397285 1.2975336806
C -0.698022416 1.052191123 -0.3249466654
H -0.6804536997 1.0275016301 -1.4249895064
C 0.7284622069 1.3197237834 0.1723247831
H 0.699104932 1.4297855518 1.2707913627
C 1.6518319926 0.1453211691 -0.1878216114
H 1.7355225685 0.0682391631 -1.2772663827
C 1.0338405962 -1.1619272879 0.3356162725
H 0.9889345249 -1.1149913303 1.449344179
O -0.2677559425 -1.3327658946 -0.167196171
O 1.7996060161 -2.2327359327 -0.0769776282
O 2.9530583482 0.3748471643 0.2828984646
O 1.1773601964 2.5202283517 -0.4078683111
O -1.5905949658 2.0329211194 0.1335830971
O -3.1699863741 -1.7391501102 0.2842509341
H -2.4134941615 -0.9961750185 -1.410978638
H -3.1707322379 0.2312437475 -0.3544250234
H 1.2502041496 -3.032766155 -0.0844910179
H 3.0141484099 0.1673021437 1.2267332755
H 2.1433583514 2.5579015032 -0.3315361283
H -1.2414020536 2.9022858171 -0.1168016258
H -3.4038939028 -1.4721835709 1.1847825859
*
