! wb97x-v def2-tzvp def2/J RIJCOSX DEFGRID2 scfconv7 GCP(DFT/TZ) printgap
%output
    printlevel normal
end
%cpcm
    smd true
    smdsolvent "water"
end
* xyz 0 1
C -3.4365135602687173 0.6200331490959153 0.09114274123178684
C -1.9411038633420798 0.5023600414034735 0.08218487837129491
C -1.1356451329803094 1.5220505049229724 -0.2385662272941576
C 0.3606590304917545 1.447179772571679 -0.2864085575772172
C 0.8699367948629002 -0.003424783428409256 -0.29659313841948465
H 0.6203472328992106 -0.4320594381063663 -1.2751521809282493
C 0.11243615117067483 -0.7906366738918659 0.7792754359940204
C -1.3761519815343342 -0.8433577652824306 0.47752547375770943
H -1.9127612454776026 -1.1984045137195405 1.370204841673246
O -1.5713741475199379 -1.8254804874614854 -0.5832302754044112
C 2.3714551850743826 -0.07019838076730892 -0.13492837335517388
C 3.158262788108964 -0.3484656781867016 -1.1799457069482158
C 2.9380875349942945 0.19359077596312996 1.2304344614985903
H -3.900653323391627 -0.09306779339353788 -0.6029774709711387
H -3.76035411398372 1.6241329361720847 -0.19574235293758435
H -3.8382860541745774 0.39443592731045407 1.0870203719217204
H -1.5822807677386674 2.485468089022272 -0.484877721011551
H 0.7261210380541896 1.9725875592607442 -1.1774453071598627
H 0.7786072228476238 1.9900084196289176 0.5744816022819689
H 0.4975870850057442 -1.8129112336787365 0.8667720345154127
H 0.24543266808221958 -0.3048195887917753 1.7536413210703976
H -2.5212942930987685 -1.9003563948523616 -0.7417232202710634
H 4.240884180366213 -0.3740087517084351 -1.0838374982556738
H 2.7377295878923515 -0.5513955741699531 -2.161972670246398
H 2.5574273726808787 1.1307528027466254 1.6525283065524778
H 2.6529701221263613 -0.6017924467202581 1.9294000314621869
H 4.029341841720527 0.24482577664831823 1.2000650213731296
*
