! pbe def2-sv(p) def2/J RI DEFGRID1 loosescf d4 GCP(DFT/SV(P)) printgap
%output
    printlevel normal
end
* xyz 0 1
C -2.4880731122 -1.1826670201 -0.0132425448
C -1.7169127179 0.1011101562 0.0016108807
O -2.2672038965 1.1887708201 0.0119970256
C -0.2288736604 0.0058471446 0.0003902812
C 0.5155245607 1.1861198049 -0.0064155251
C 1.8980683226 1.1057203271 -0.0073040734
N 2.5573077486 -0.0422367835 -0.0006866235
C 1.8527345613 -1.1630408759 0.006759792
C 0.4668465809 -1.2024231104 0.0069731746
H -3.5525404411 -0.9646048442 -0.0216733792
H -2.2433985346 -1.7686199443 0.869379098
H -2.2262302631 -1.7609455491 -0.8959135697
H 0.0036738038 2.1358943887 -0.0105015096
H 2.5099329754 1.996969037 -0.0118481576
H 2.4340544924 -2.0745439186 0.0095906526
H -0.0412756801 -2.1514084932 0.0138696334
*
