! wb97x-v def2-tzvp def2/J RIJCOSX DEFGRID2 scfconv7 GCP(DFT/TZ) printgap
%output
    printlevel normal
end
%cpcm
    smd true
    smdsolvent "water"
end
* xyz 0 1
C -2.7303167647232187 -0.03561101705899117 1.0719141083090744
C -1.7802572478697347 0.14994620903428024 -0.072650631334516
O -2.172567973896179 0.15779392943309578 -1.2374925873074656
C -0.3202347801675216 0.3126131807443509 0.2740009894556147
C 0.45204678170274026 1.1541672425918226 -0.7437518762487709
C 1.9255320038199117 1.2633634728328564 -0.3482321905189724
C 2.5626650249918304 -0.12112499367496736 -0.2157445214859143
C 1.7872107707410008 -0.9924325300320154 0.773359431467459
C 0.3104517098367132 -1.0965801077518915 0.38853099695485216
H -2.3046643774581357 -0.6941565722304578 1.8352656662746902
H -2.8736838830454845 0.9436393553979444 1.5473629406419165
H -3.6958923875158027 -0.4117918571547663 0.7299055596200528
H -0.26008810277527616 0.781886881090465 1.265980441329295
H 0.3740280564289545 0.6814869803650654 -1.7306747599405912
H -0.0009632640575517209 2.149191668148351 -0.8241193437304281
H 2.466661544710371 1.8615754778140818 -1.0903467958367716
H 2.0057386399125092 1.7932528025977617 0.6110091998325169
H 2.5682147204441064 -0.6101796485526402 -1.1997799129680375
H 3.607552101844531 -0.029269319007784622 0.102489904786757
H 2.2236881364839274 -1.9968844511310548 0.8216804175306417
H 1.865047772978102 -0.5586566879044502 1.7795580067169354
H 0.2148652327765584 -1.5985406369553223 -0.5838141896267341
H -0.2336229141165262 -1.697822256539031 1.1252564611208917
*
