! wb97x-v def2-tzvp def2/J RIJCOSX DEFGRID2 scfconv7 GCP(DFT/TZ) printgap
%output
    printlevel normal
end
* xyz 0 1
C 0.1724356241699755 -0.6441969021490448 0.5207223015829496
H 0.1978114588770086 -0.7269484655176911 1.6099280011429116
C 1.335324745943437 0.22005955175673433 0.018036765150014667
F 1.2908929440176484 1.4418672853122052 0.5725959942748209
F 1.3304743038182167 0.3526409051251599 -1.317696820481265
F 2.4988058512841995 -0.3617713816557629 0.37137399538790017
F 0.28577065381284084 -1.8767974049730562 -0.0477905849349202
Br -1.5386668427450432 0.16435083177675577 0.012591935641798389
*
