! pbe def2-sv(p) def2/J RI DEFGRID1 loosescf d4 GCP(DFT/SV(P)) printgap
%output
    printlevel normal
end
* xyz 0 1
C -3.2036340606 0.5626629245 -0.0088804593
O -2.297277911 -0.5194686044 -0.0009625331
C -0.9483693202 -0.2383536217 0.001444633
C -0.0978856201 -1.3425833568 0.0023355459
C 1.2692232552 -1.1770958075 0.0079238392
C 1.8359990583 0.100882434 0.010945852
C 0.9763743454 1.1977156118 0.012088888
C -0.3979673268 1.035702893 0.0062470528
N 3.2042033086 0.2689068955 -0.0610880149
H -3.0906124807 1.1818111205 0.8859019224
H -4.1925339883 0.1092228459 -0.0158794149
H -3.076828776 1.1800447953 -0.9029602701
H -0.5376233548 -2.3277869247 0.0013227555
H 1.9126758198 -2.0442411695 0.0077280875
H 1.3893539126 2.1957149449 0.0150782424
H -1.0247622636 1.9132091763 0.008196785
H 3.7558879713 -0.5181279759 0.2384636394
H 3.5509186136 1.1635975836 0.2437675317
*
