! pbe def2-sv(p) def2/J RI DEFGRID1 loosescf d4 GCP(DFT/SV(P)) printgap
%output
    printlevel normal
end
* xyz 0 1
C -2.0677763949 -1.3568510658 -0.1624244466
C -1.0302062827 -0.500618874 0.5841445023
H -1.4868637465 -0.1638661014 1.5235571992
C -0.6403130124 0.7350753254 -0.2507400874
H -0.5353333172 0.4549802604 -1.3067698521
C 0.7191925793 1.2293643734 0.2497981299
H 0.7035464929 1.2996947511 1.3498427387
C 1.7655603992 0.1769679262 -0.1403736819
H 1.9431047948 0.2580734052 -1.2218667926
C 1.2167556214 -1.2469583139 0.1276878834
H 1.9694482994 -1.8153703459 0.694097761
O 0.1039633163 -1.2631587488 0.9852729347
O 0.9513935408 -1.8363620806 -1.106838536
O 2.9325102478 0.4551139578 0.5901727436
O 1.000700102 2.4810225118 -0.317134547
O -1.6555347048 1.7029776943 -0.2140513856
O -3.3228137523 -0.7261463917 -0.2083677283
H -2.2155529822 -2.2959869089 0.3761402805
H -1.7038483512 -1.5748867087 -1.1758534107
H 0.7578046334 -2.7798089098 -0.9949894988
H 3.6787185938 -0.0534543463 0.2423567263
H 1.8907912607 2.7513805746 -0.0476866232
H -1.5207505991 2.3018906694 0.5335455387
H -3.2048909786 0.1808795585 -0.5345477754
*
