! pbe def2-sv(p) def2/J RI DEFGRID1 loosescf d4 GCP(DFT/SV(P)) printgap
%output
    printlevel normal
end
* xyz 0 1
C -1.6880707472 -1.3716390297 -0.5559710505
C -1.1453632632 -0.4843713699 0.573956792
H -1.9045281854 -0.4181635086 1.3603316516
C -0.8652233595 0.9560341327 0.1003305989
H -1.1741819941 1.0534575146 -0.9516396928
C 0.6367447386 1.2696072746 0.2162805191
H 0.8813328246 1.3730244953 1.2810183252
C 1.4390521145 0.1066161737 -0.3797170393
H 1.1098322029 -0.0904713681 -1.4066681262
C 1.1657616359 -1.1601207867 0.4610084946
H 1.9528600374 -1.2594311806 1.2238554711
O -0.022122631 -1.0706198357 1.2157383795
O 1.1695137489 -2.2575456602 -0.3961095229
O 2.8072224806 0.3859538689 -0.484740452
O 0.9557593101 2.5075501634 -0.364174293
O -1.6235188 1.8349868355 0.8956704071
O -2.861115604 -0.7787608026 -1.0609009376
H -1.8940618826 -2.3626564199 -0.1349973842
H -0.930424557 -1.4721679751 -1.3435961367
H 1.1807860173 -3.0839766063 0.1105175847
H 3.1416629644 0.7427185825 0.3515637822
H 0.9625544374 2.4289141027 -1.329251381
H -1.3722828892 2.7462638054 0.6787027576
H -3.264538136 -1.3746007341 -1.7081656093
*
