! pbe def2-sv(p) def2/J RI DEFGRID1 loosescf d4 GCP(DFT/SV(P)) printgap
%output
    printlevel normal
end
* xyz 0 1
C -2.2984877376 -0.9001775532 0.7556632905
C -0.8532023675 -0.3838548159 0.7534420326
H -0.5671408021 -0.1116936569 1.7786515544
C -0.6644288616 0.8365795235 -0.1585192768
H -0.9046701712 0.5266979785 -1.1866679633
C 0.8063376758 1.2979950321 -0.1070626729
H 0.866974539 2.1200001568 0.6179876678
C 1.7510689829 0.1832589971 0.3772867756
H 2.7358608923 0.3812955531 -0.0697321662
C 1.2499729446 -1.1623648782 -0.1673736046
H 1.8750123667 -1.9964863097 0.1805625107
O -0.0469623768 -1.4701363677 0.2964439715
O 1.3184816471 -1.1926885095 -1.5597786804
O 1.8119064685 0.2160504675 1.778202008
O 1.259634013 1.6954968225 -1.3812631125
O -1.4586631927 1.9330153269 0.2228790024
O -2.7906275303 -1.1297996604 -0.540619046
H -2.9532115517 -0.1584627546 1.2148245196
H -2.3265492881 -1.8183099138 1.3530431117
H 1.2046681535 -0.2986175004 -1.9291759982
H 2.513152558 -0.3717225576 2.0946721513
H 0.8093379638 2.5103850065 -1.6468172239
H -2.3857692638 1.7470954452 0.0184325617
H -2.2520087906 -1.8225711379 -0.9492087504
*
