! pbe def2-sv(p) def2/J RI DEFGRID1 loosescf d4 GCP(DFT/SV(P)) printgap
%output
    printlevel normal
end
* xyz 0 1
C -2.8523328586 -0.6600191873 0.3486014563
C -1.9755788568 0.4115631572 -0.2907890664
C -0.4917415732 0.2019190759 -0.1336374516
C 0.0720456228 -1.0444979832 0.104723026
C 1.4442948032 -1.190562548 0.2237762004
C 2.2782424838 -0.0936030167 0.1028240138
C 1.7288704061 1.1547599753 -0.1385655449
C 0.3587444543 1.2974750392 -0.2534687556
H -3.8958723107 -0.3589572649 0.2963802478
H -2.585555602 -0.7986503152 1.3938417169
H -2.7519460721 -1.6112094837 -0.1677034121
H -2.2303084017 1.3837911922 0.1384781784
H -2.2015772701 0.4657411658 -1.3606433807
H -0.5564070321 -1.9157017313 0.2010382126
H 1.8628702798 -2.1685638667 0.4119239106
H 3.347805339 -0.2088921822 0.1962124612
H 2.3698811365 2.0189021018 -0.2345819332
H -0.0626521155 2.2755311289 -0.4395502666
*
