! pbe def2-sv(p) def2/J RI DEFGRID1 loosescf d4 GCP(DFT/SV(P)) printgap
%output
    printlevel normal
end
* xyz 0 1
C -3.2215773154 -0.3284543607 -0.9476518571
C -1.7384193259 -0.2386310084 -0.5959527385
H -1.1761355897 -0.1686138765 -1.532436725
C -1.2816402435 -1.4825125005 0.1836946742
C -0.1752346206 -1.1756728988 1.1994638597
C 0.7853446969 -0.0811454865 0.7264613552
H 1.5270079658 0.1209019698 1.5087226403
C -0.0003270011 1.1985721474 0.544929695
O 0.4957724937 2.2978231484 0.7134698214
C -1.4554285609 1.0306070691 0.2064324297
C 1.5808909557 -0.471573254 -0.5455977938
C 2.2802979735 0.7383417667 -1.1618620944
C 2.6181991744 -1.5423743432 -0.2103581295
H -3.8275793868 -0.3485136283 -0.044733924
H -3.5257244207 0.5265029339 -1.5468253961
H -3.4186999433 -1.233666554 -1.5164021897
H -2.1326119659 -1.903517282 0.7214529312
H -0.9408862433 -2.2416630852 -0.5209765733
H -0.6235328329 -0.8389828032 2.1365642275
H 0.3792320155 -2.0865784488 1.4220314401
H -1.9974102893 0.9936292245 1.1562419591
H -1.7988033628 1.9217871888 -0.3227268823
H 0.888511093 -0.8819021306 -1.2838054817
H 1.5621165217 1.4675604509 -1.5306015578
H 2.9056073999 0.4241276227 -1.9940461223
H 2.9076666739 1.234051326 -0.4240624218
H 2.1517062439 -2.43416406 0.1974087811
H 3.3351374145 -1.1623834361 0.5140631572
H 3.1586973519 -1.8257179679 -1.1101198919
*
