! r2scan-3c def2/J RI DEFGRID2 scfconv6 printgap
%output
    printlevel normal
end
%cpcm
    smd true
    smdsolvent "water"
end
* xyz 0 1
C -2.5621278033 -0.9731351716 0.0072899283
C -1.2382445036 -0.2788435479 -0.0076716163
C -1.1523704675 1.1106160758 -0.0035409924
C 0.0995225994 1.698356961 0.0012508488
N 1.2335313289 1.0166555008 0.0021519934
C 1.1690739722 -0.3131262102 -0.0011110297
C -0.0455714556 -0.9907171673 -0.0061432335
C 2.4733344351 -1.0470750026 0.0017932435
H -2.9330723044 -1.0277173068 1.0304489132
H -3.2900102244 -0.4238549885 -0.5846226266
H -2.4733650024 -1.9852522267 -0.378066666
H -2.0431176862 1.7192795871 -0.0060023189
H 0.2096974465 2.7753659354 0.0029406531
H -0.0583754283 -2.0704991084 -0.010452333
H 2.314698652 -2.1200557354 -0.0466832893
H 3.0754527573 -0.7297418042 -0.846153973
H 3.0279515303 -0.8048194062 0.905603596
*
