! pbe def2-sv(p) def2/J RI DEFGRID1 loosescf d4 GCP(DFT/SV(P)) printgap
%output
    printlevel normal
end
* xyz 0 1
C 1.2269027684 1.4456118049 -0.347926119
C 0.7163561786 0.0089788168 -0.4263196523
C 1.5289179405 -0.9038432984 0.5019730424
C -0.7338116474 -0.0770446466 0.0156145827
O -1.1871239051 0.6293000563 0.8941395922
C -1.5576552298 -1.1109358552 -0.6926019872
H 0.6885713764 2.0796520458 -1.048757574
H 1.0712464137 1.8388260555 0.6542008268
H 2.2869817913 1.4841150392 -0.5822948807
H 0.801240345 -0.3614475879 -1.4508982145
H 2.5791945606 -0.8664354821 0.2262538236
H 1.1870670625 -1.9334821206 0.4351259471
H 1.4263039989 -0.5704616003 1.5324488853
H -1.0118560317 -2.0475059279 -0.7612879452
H -1.7499019905 -0.7597142474 -1.7046970207
H -2.5048002247 -1.2592358385 -0.1814645476
*
