! r2scan-3c def2/J RI DEFGRID2 scfconv6 printgap
%output
    printlevel normal
end
%cpcm
    smd true
    smdsolvent "water"
end
* xyz 0 1
C -2.107039723 -0.5597115492 -0.7079500941
C -1.3594252808 -0.3144481455 0.6063304777
C -0.0086174765 0.2790235806 0.3061528529
O 0.2620656096 1.4610875548 0.3524881079
O 0.867117185 -0.6523843753 -0.0528753857
C 2.1810057059 -0.2217379106 -0.4161168804
H -1.553925139 -1.2581887026 -1.3304156922
H -3.088147082 -0.9749387202 -0.4987827654
H -2.2308189997 0.3738381688 -1.2518107997
H -1.2196179767 -1.258135476 1.1317741542
H -1.9136856905 0.3857880651 1.229991491
H 2.6283127146 0.3419278741 0.4035351493
H 2.1330579997 0.4157235887 -1.2997922451
H 2.7412659162 -1.1288871193 -0.6191048427
*
