! pbe def2-sv(p) def2/J RI DEFGRID1 loosescf d4 GCP(DFT/SV(P)) printgap
%output
    printlevel normal
end
* xyz 0 1
C -2.7008883538 0.8449041967 1.3611129844
C -1.6135482061 0.4692314887 0.4077274434
C -0.8572567088 1.3403285327 -0.2480352389
C 0.2021692632 0.888882016 -1.2036410675
C 0.9887780766 -0.3402127488 -0.6945960145
H 1.337128305 -0.8941479099 -1.5712217548
C 0.1401551973 -1.2912493621 0.1808330335
C -1.3700823816 -1.0040268029 0.1747736046
H -1.840855361 -1.5933395581 0.9702854206
O -2.0060048131 -1.4749377482 -1.0057543614
C 2.2124730205 0.0895275188 0.0825935828
C 3.4074996137 -0.4081024245 -0.1952850227
C 2.0096359882 1.0946496281 1.1761949909
H -2.8093169355 1.9245106606 1.4205811568
H -2.4825815706 0.4547833296 2.3547581612
H -3.6438440241 0.4085740881 1.033777319
H -0.9975211553 2.4038396613 -0.1193047336
H -0.2653988169 0.6379461733 -2.1610349679
H 0.9020122709 1.700222568 -1.4074640019
H 0.291404467 -2.3221330406 -0.1424456375
H 0.4733922363 -1.2246041216 1.2174008177
H -1.6615223088 -0.9812573699 -1.7610619525
H 4.2853879716 -0.125335643 0.3610655749
H 3.5602867693 -1.1189937952 -0.9899214325
H 1.1064464709 0.8796188562 1.7419588052
H 2.8613524643 1.1039008043 1.8508198
H 1.9008323173 2.0923933139 0.7536164499
*
