! pbe def2-sv(p) def2/J RI DEFGRID1 loosescf d4 GCP(DFT/SV(P)) printgap
%output
    printlevel normal
end
* xyz 0 1
C -2.3389759188 -0.77630929 0.721268476
C -0.8697463679 -0.3250575342 0.7523574891
H -0.603315237 -0.0417272246 1.7805362713
C -0.6273989624 0.8791442785 -0.1742637952
H -0.888102828 0.5859716553 -1.1977453296
C 0.8580343562 1.3051510957 -0.1254828005
H 0.9680670442 2.1201823504 0.5993237297
C 1.7594913478 0.1484829269 0.3574052083
H 2.7504037414 0.2950876183 -0.0932354724
C 1.1874092461 -1.1772548161 -0.1668257212
H 1.8131527353 -2.0249429949 0.1544401474
O -0.0844747626 -1.4525167706 0.3609168959
O 1.1709066736 -1.0786958959 -1.5595274613
O 1.8241241922 0.1813524025 1.7587849581
O 1.3054901198 1.8278245702 -1.3468019277
O -1.4913841787 1.9420008018 0.1314670832
O -2.6934067369 -1.3680654397 -0.500899985
H -2.9792583959 0.0992430097 0.8378949363
H -2.5123968828 -1.4735453093 1.5498627619
H 0.9196200123 -1.9248927594 -1.9590252588
H 2.5170092672 -0.4146324245 2.0782251332
H 1.2651241014 1.1290447592 -2.0188307901
H -1.2595628423 2.314222836 0.9948211122
H -2.1152446614 -2.1332437882 -0.6350299888
*
