! r2scan-3c def2/J RI DEFGRID2 scfconv6 printgap
%output
    printlevel normal
end
%cpcm
    smd true
    smdsolvent "water"
end
* xyz 0 1
C -1.7441570454 -0.8175776938 0.0018740813
C -0.5029416228 0.0031578937 -0.3364609532
C -0.6587077406 1.4486794024 0.1296902321
C 0.7390620094 -0.6303252551 0.304612965
O 1.9466014642 -0.0047875007 -0.0752803027
H -1.646562793 -1.8354917115 -0.3679105108
H -2.624905658 -0.3686030079 -0.4494841968
H -1.8893222659 -0.8550732698 1.0790011604
H -0.3636914236 -0.0014715571 -1.4242155147
H 0.2683478126 1.995246307 -0.0269597421
H -0.8959858456 1.4766412856 1.1908819325
H -1.4558012458 1.9447466516 -0.4179770005
H 0.689931126 -0.5264502998 1.3915086532
H 0.7777902958 -1.7016663075 0.0630116874
H 2.0602681664 -0.0987665018 -1.0311362332
*
