! r2scan-3c def2/J RI DEFGRID2 scfconv6 printgap
%output
    printlevel normal
end
%cpcm
    smd true
    smdsolvent "water"
end
* xyz 0 1
C -1.8959724418 -0.0001699748 0.2790486608
C -1.1873115534 -1.2535853184 -0.2270177447
C 0.2761958634 -1.2528680193 0.2052451279
C 0.9866419011 0.0001392149 -0.3139352622
C 0.2759457608 1.2529908742 0.205262831
C -1.1876126844 1.2534622638 -0.2269725823
O 2.3664333605 3.8435e-05 0.0081215127
H -1.896620255 -0.0002427983 1.3711946261
H -2.9341131609 -0.0002497948 -0.0570992267
H -1.6831482206 -2.1453081379 0.160062289
H -1.2409360662 -1.2853974852 -1.3173303187
H 0.3345302224 -1.2686900963 1.2966510554
H 0.7876682992 -2.1394777178 -0.17424917
H 0.9675984875 0.0002737428 -1.410300953
H 0.3344438671 1.2689947905 1.2967459625
H 0.7871506484 2.1397623091 -0.1744402407
H -1.6836702258 2.1450198266 0.1602004252
H -1.2412191951 1.2852913176 -1.3173480597
H 2.4617645412 -0.0002171312 0.9709045447
*
