! pbe def2-sv(p) def2/J RI DEFGRID1 loosescf d4 GCP(DFT/SV(P)) printgap
%output
    printlevel normal
end
* xyz 0 1
C -2.5581291466 -0.8800996437 0.3244585676
C -1.1175005554 -0.4430258356 0.632311042
H -0.9799687075 -0.39385791 1.7233999403
C -0.8216508329 0.9431058626 0.0202895269
H -1.0700384266 0.9011160298 -1.0472570776
C 0.6672578551 1.2958016809 0.1980813588
H 0.8917062402 1.4151160544 1.2657158694
C 1.5390118939 0.1505258123 -0.3389441158
H 1.3894195532 0.0600904185 -1.4279500243
C 1.1051831582 -1.1716847548 0.331203854
H 1.2983944562 -1.094826225 1.41494294
O -0.2544909722 -1.4285320919 0.0889708082
O 1.8522776621 -2.2419407042 -0.1225323559
O 2.885825389 0.4242580032 -0.0523758689
O 0.9839383206 2.5389040774 -0.3654683604
O -1.661270098 1.9300748436 0.5560539748
O -2.7727672938 -1.0819033266 -1.0466375529
H -3.2350467309 -0.0800809202 0.6288188421
H -2.782724988 -1.7906379248 0.8917627484
H 1.5189000866 -2.5309132039 -0.9867271386
H 3.4071310844 -0.3826037767 -0.1899696263
H 0.8322495806 2.5219606053 -1.3214127126
H -1.3461513978 2.1975381685 1.4313928055
H -2.1985134524 -1.8031638626 -1.3413232883
*
