! wb97x-v def2-tzvp def2/J RIJCOSX DEFGRID2 scfconv7 GCP(DFT/TZ) printgap
%output
    printlevel normal
end
%cpcm
    smd true
    smdsolvent "water"
end
* xyz 0 1
C -2.828770444223101 -0.24445291094085 -0.3582181468899879
O -1.4016891996089735 -0.5517041525654012 -0.4550530158174661
C -0.6007122147086033 0.30561103043652565 0.14299828703133444
O -0.9023531162110263 1.3042948681085875 0.7541631890176217
C 0.8863019311734794 -0.09947835466994245 0.000847728776010802
F 1.5765692900948767 0.9217584980547079 -0.5408916739216402
F 1.3981055506465825 -0.3425459050510363 1.2239254141237754
F 1.0815007982528255 -1.18660813889974 -0.7577558752036611
H -3.32234513253355 -1.020752774104232 -0.938495200354041
H -3.0158643790436206 0.7433500847083031 -0.7824295219888712
H -3.133907684345449 -0.28172691139539996 0.6889033978488764
*
