! r2scan-3c def2/J RI DEFGRID2 scfconv6 printgap
%output
    printlevel normal
end
%cpcm
    smd true
    smdsolvent "water"
end
* xyz 0 1
C -2.0096387871 1.2207474957 -0.3763895218
C -1.6496512181 -0.228601473 -0.0542956531
C -1.848786144 -0.5002760737 1.4360935281
C -0.2916969882 -0.6957248056 -0.6168894195
C 1.0692083009 -0.0970700887 -0.1971847419
C 1.2095496604 1.3804182401 -0.5702496556
C 1.3652450139 -0.2735845616 1.293525545
C 2.132240782 -0.8819110921 -0.9838595922
H -1.475734164 1.9144195907 0.266026372
H -1.7810064912 1.4565655047 -1.4124021508
H -3.075106981 1.3766021283 -0.2177971436
H -2.3771127122 -0.857809576 -0.5862193948
H -1.5112656173 -1.5000179039 1.6968757951
H -1.3123362736 0.2189872191 2.0470054004
H -2.9057831955 -0.4216290794 1.6835042329
H -0.2342948689 -1.7699123036 -0.4158234486
H -0.3577166646 -0.5832530643 -1.7034606964
H 2.2464006892 1.6910409465 -0.4564403168
H 0.6029974133 2.0120602605 0.0698522439
H 0.9157843234 1.5476294847 -1.6034818299
H 2.4126593734 -0.0511479743 1.4890388223
H 1.1697621745 -1.2956048128 1.6083446703
H 0.7661217292 0.3984266319 1.899369672
H 1.9757797819 -0.7752798986 -2.0550918268
H 2.0925562114 -1.9403854599 -0.7360286991
H 3.1286915258 -0.5149824631 -0.7480351935
*
