! wb97x-v def2-tzvp def2/J RIJCOSX DEFGRID2 scfconv7 GCP(DFT/TZ) printgap
%output
    printlevel normal
end
* xyz 0 1
C 2.193363264982743 0.0321484178432584 0.056573418162231895
O 0.9836627949958788 -0.395233721139147 -0.6454161668552051
S -0.44121677010856725 -0.06698595833881586 0.07716199563267036
O -0.3438011932838935 -0.3597880278675879 1.5154946493728894
O -1.4188977017376097 -0.7966382200556001 -0.7387568385680683
C -0.6439221701225378 1.694601768597671 -0.15869895355761837
H 2.233211338264741 1.1221506883284358 0.12256377379449462
H 3.010229186448207 -0.3319410870365133 -0.5656407352145824
H 2.2396257521555176 -0.42606343021049475 1.045841049842905
H -1.6312561381956792 1.950962207464219 0.23532658154431815
H 0.13424797373352582 2.2189828833651157 0.40016868328277017
H -0.5834331881010683 1.9083432553584327 -1.2278900967049802
*
