! pbe def2-sv(p) def2/J RI DEFGRID1 loosescf d4 GCP(DFT/SV(P)) printgap
%output
    printlevel normal
end
* xyz 0 1
C -2.0250523707 -0.211693686 -0.9987547678
C -1.3494027707 -0.1821911336 0.3813480911
H -2.1104267073 -0.3693705921 1.1508240275
C -0.7035168788 1.1739807137 0.6766693561
H -1.4270422136 1.9488122224 0.3919642517
C 0.5644266267 1.412799028 -0.1690830137
H 1.2332478133 2.0753830196 0.4008741109
C 1.3480453483 0.1110888952 -0.4106248511
H 1.1073012971 -0.2827206157 -1.4106241027
C 0.9260905294 -0.9559394257 0.608195545
H 1.1228994442 -0.5833892087 1.6314008873
O -0.4375937671 -1.2773586141 0.4708577423
O 1.6614539724 -2.0999820752 0.3455384095
O 2.7193925465 0.3970712164 -0.311226373
O 0.1652856548 2.0277841208 -1.36785603
O -0.43164661 1.2244590722 2.0576034133
O -2.6845437683 -1.432104894 -1.2184421955
H -1.2778996407 -0.0285260698 -1.780173278
H -2.7875206146 0.5661417034 -1.0534120005
H 1.3315288113 -2.8323126508 0.8878898843
H 3.2143569164 -0.4358422361 -0.3403234938
H 0.9495447297 2.30283967 -1.8650414592
H -0.2750182202 2.1393653427 2.3334547251
H -2.0636339337 -2.1489156413 -1.0191057521
*
