! pbe def2-sv(p) def2/J RI DEFGRID1 loosescf d4 GCP(DFT/SV(P)) printgap
%output
    printlevel normal
end
* xyz 0 1
C 2.4363737208 0.0294981584 0.0001593622
C 0.9418974881 -0.0063951012 -0.0002136276
C 0.2480274977 -1.2134240437 -0.0002359672
C -1.135727277 -1.2025957257 5.67342e-05
C -1.7848045866 0.0229985615 0.0001742637
N -1.1433354118 1.1807518043 -2.3135e-06
C 0.1803983044 1.1573782905 -8.91947e-05
H 2.7977175516 1.0539203975 -0.0082075536
H 2.8232992962 -0.4733855988 0.8846750112
H 2.8244627185 -0.4886308167 -0.8749191961
H 0.790604854 -2.1478899679 0.0003981095
H -1.7005431303 -2.1213125358 -1.42061e-05
H -2.864449178 0.0885249203 0.00020396
H 0.6574594268 2.1293885294 -0.0003352747
*
