! pbe def2-sv(p) def2/J RI DEFGRID1 loosescf d4 GCP(DFT/SV(P)) printgap
%output
    printlevel normal
end
* xyz 0 1
C -2.3986576262 -1.1866217565 -0.2076365246
C -1.0805103646 -0.6259978614 0.3616155983
H -1.1160009028 -0.5938288562 1.463167723
C -0.8022161977 0.807697057 -0.1181208095
H -0.9619190668 0.8693360334 -1.2040119975
C 0.6467516028 1.2185421677 0.183732544
H 0.7579955416 1.3351001144 1.2746616723
C 1.6348196509 0.1467587396 -0.2772344775
H 1.5865152962 0.0471971452 -1.3719001049
C 1.2240284984 -1.2000947846 0.3347061015
H 1.2729474948 -1.1216254132 1.442326689
O -0.0849884082 -1.5387688042 -0.0558821296
O 2.0848780293 -2.1719648795 -0.1350628441
O 2.9182859105 0.5381061844 0.1362932913
O 0.8741937958 2.4501117462 -0.455452831
O -1.6912355069 1.65464153 0.56629201
O -3.4354263055 -0.2553034286 -0.3355681807
H -2.7107630026 -2.0355006867 0.4155021992
H -2.192038129 -1.5570283142 -1.2150946531
H 1.703914859 -3.0500844771 0.020926294
H 3.5481367842 -0.1635453656 -0.085850819
H 1.8085386552 2.6831730448 -0.3506075192
H -1.5301508947 2.5650059662 0.2769748047
H -3.4897026321 0.2847065113 0.4670800791
*
