  6
        -22.45447138
 C          0.6690067056        0.0000100470        0.0009018726
 C         -0.6689927739        0.0000202905        0.0006720158
 Cl        -1.5769474851        1.4518270827       -0.0000489021
 Cl        -1.5769187987       -1.4517990324       -0.0002011825
 Cl         1.5768795904       -1.4518461435       -0.0000654157
 Cl         1.5769819737        1.4518078154       -0.0002177012
