! wb97x-v def2-tzvp def2/J RIJCOSX DEFGRID2 scfconv7 GCP(DFT/TZ) printgap
%output
    printlevel normal
end
%cpcm
    smd true
    smdsolvent "water"
end
* xyz 0 1
C -2.218745956277376 0.27690033616460547 -0.2915177802263516
C -1.0035539645294287 0.20526412430472923 0.6412869692794667
C 0.0019015534869791862 -0.7978075491643855 0.16319527348895843
C 1.2741002645730428 -0.582633754576343 -0.19080309517839522
C 2.0196224214656553 0.713881052806975 -0.18107536413713846
H -2.694315651134736 -0.7050583875026358 -0.3900198566585716
H -1.922360692450071 0.6083733413452542 -1.2922820712688283
H -2.9674065523584368 0.977437390654734 0.09211881122313711
H -0.5555020494173968 1.1981902347176285 0.7422577243012363
H -1.348673359604641 -0.08903849598605494 1.6421109264920308
H -0.3761910658013098 -1.818430581620991 0.08445510551034693
H 1.8526384451143734 -1.4432352381220936 -0.5276019381910853
H 2.421020573260344 0.9327895109121025 -1.178681071776079
H 2.885090661216812 0.6551913088179245 0.4916117413007963
H 1.4038028101832214 1.5604032635678482 0.1315998983234038
*
