! pbe def2-sv(p) def2/J RI DEFGRID1 loosescf d4 GCP(DFT/SV(P)) printgap
%output
    printlevel normal
end
* xyz 0 1
C -2.1159083389 -1.1745916269 -0.2127488066
C -1.2657895461 -0.3168249576 0.7449265572
H -1.8660954962 -0.1351669814 1.642677431
C -0.8984992149 1.0621116229 0.160918848
H -1.1621249663 1.1175344304 -0.9070284947
C 0.6144779101 1.2838791489 0.2527787634
H 0.9124550269 1.3434308586 1.3105499639
C 1.3184487922 0.0863551921 -0.3905574224
H 0.9533163145 -0.0242837837 -1.4230886146
C 0.974639764 -1.1942706458 0.4064925378
H 1.8002263274 -1.4159303833 1.0951166737
O -0.1342017394 -1.0162152754 1.2535430883
O 0.8646371362 -2.3089897488 -0.4183190884
O 2.6995537523 0.3541566835 -0.3933723388
O 0.912208305 2.4855794202 -0.4124754529
O -1.6185432039 2.0392079951 0.8674312209
O -1.5249761711 -1.3765027511 -1.4817153
H -3.099348262 -0.710814268 -0.3066499362
H -2.2274856898 -2.1636052827 0.238983373
H 0.0778897584 -2.2126363329 -0.9930838453
H 3.1721966119 -0.3657606496 -0.8338948099
H 1.8749386486 2.5527922559 -0.4992772122
H -1.2941791664 2.912846984 0.5997058588
H -1.8121567199 -0.6928238356 -2.1009432707
*
