! pbe def2-sv(p) def2/J RI DEFGRID1 loosescf d4 GCP(DFT/SV(P)) printgap
%output
    printlevel normal
end
* xyz 0 1
C -2.5316046613 0.076016238 -4.62309e-05
C -1.1231324607 -0.5107189524 8.1937e-05
C -0.0874295139 0.5997227202 4.62208e-05
Cl 1.5787129634 -0.079264818 -2.02042e-05
H -2.6890654778 0.6905857441 -0.8822994926
H -3.2663905262 -0.7234958108 -0.0002279501
H -2.6892139333 0.6908213253 0.8821580788
H -0.9827118699 -1.1368768745 0.8824821356
H -0.9827071774 -1.1367287232 -0.8824021042
H -0.1634697697 1.2187045506 0.8924688453
H -0.1634303397 1.218624332 -0.8924451073
*
