! r2scan-3c def2/J RI DEFGRID2 scfconv6 printgap
%output
    printlevel normal
end
%cpcm
    smd true
    smdsolvent "water"
end
* xyz 0 1
C 2.182791302 1.0306134224 -0.4240445754
C 1.1669806591 -0.0865565494 -0.2401651438
C 1.6183007821 -1.1201230351 0.7852189941
O -0.0589206891 0.5329312973 0.2131618917
C -1.2168702499 -0.032213427 -0.0902131618
O -1.3201619185 -1.0477182864 -0.7501142605
C -2.3720410611 0.7337060767 0.4841417499
H 2.3582026197 1.5259795279 0.5265592041
H 3.1157096637 0.6159966183 -0.7912514791
H 1.8127568318 1.7617499072 -1.137338731
H 0.9505714887 -0.5826666294 -1.1952872618
H 1.7651496754 -0.6436409612 1.7510256714
H 2.5502734684 -1.5718341619 0.4614081115
H 0.8659815416 -1.8998199294 0.8841815686
H -3.1743094238 0.780167461 -0.2461033335
H -2.0487555039 1.7264957377 0.7772286537
H -2.7392986752 0.1978665167 1.3567162567
*
