  14
        -13.66764301
 C         -0.3775628846        1.3981280070       -0.1083451002
 C          0.0000107381       -0.0000087727        0.3759013553
 C         -1.0220532499       -1.0260320632       -0.1083509129
 C          1.3996106479       -0.3720880531       -0.1083556619
 H          0.3373726660        2.1344122232        0.2515504027
 H         -0.3863956067        1.4307050255       -1.1958258785
 H         -1.3659312807        1.6744209423        0.2515982520
 H          0.0000383016       -0.0000334429        1.4720670374
 H         -1.0459006366       -1.0499532861       -1.1958256957
 H         -2.0171292312       -0.7749835128        0.2516021707
 H         -0.7671728572       -2.0201378192        0.2515790242
 H          1.6797629518       -1.3593673820        0.2515903917
 H          2.1330800010        0.3457236048        0.2515652145
 H          1.4322131148       -0.3807758432       -1.1958314555
