! pbe def2-sv(p) def2/J RI DEFGRID1 loosescf d4 GCP(DFT/SV(P)) printgap
%output
    printlevel normal
end
* xyz 0 1
C -2.3453645256 -0.9186929502 0.5432134037
C -0.8994528005 -0.4115484627 0.6344191634
H -0.560028322 -0.4457275203 1.6785696696
C -0.7543120931 1.0294970021 0.1041423784
H -1.4340671161 1.1468783694 -0.7536939321
C 0.6918107492 1.2702679118 -0.3820660636
H 0.9459383839 2.3079968331 -0.1199195054
C 1.6669888167 0.3195454455 0.3314415442
H 2.6743329157 0.4763727494 -0.0818141707
C 1.2787669833 -1.1386491456 -0.0002452975
H 1.6299333956 -1.781665369 0.8232877539
O -0.1155301158 -1.2932021105 -0.1578534983
O 1.8928866834 -1.5944806092 -1.1482718751
O 1.6664382003 0.468885457 1.7253168599
O 0.8555167671 1.041873407 -1.7586757514
O -1.0230607902 1.9968573739 1.089348692
O -2.8484541766 -0.8596843911 -0.7662208606
H -2.9987305997 -0.2926579357 1.1527176916
H -2.375067808 -1.9450920458 0.9265957178
H 1.609998492 -1.0332196772 -1.8924336651
H 1.921843226 1.3732900982 1.9603848348
H 0.3496065653 1.6926415641 -2.2664140033
H -1.9485374887 1.9408558958 1.3628077582
H -2.2973694567 -1.4263999325 -1.3249709525
*
