! r2scan-3c def2/J RI DEFGRID2 scfconv6 printgap
%output
    printlevel normal
end
* xyz 0 1
C 1.952723473 5.44997e-05 -0.7616463463
C 1.112449113 -2.21648e-05 0.5144299206
C 0.2382515122 1.2538141017 0.6292497202
C -0.9171699258 1.2520593511 -0.3682600902
C -1.7711094755 8.31616e-05 -0.194852093
C -0.9173253641 -1.2520224362 -0.3681523197
C 0.2383215185 -1.2539293496 0.6291216154
H 2.5887083043 0.8820345547 -0.7916141169
H 2.5888962318 -0.8818919966 -0.7914101954
H 1.3297946723 -0.0002060495 -1.6508267732
H 1.8099238472 -2.98564e-05 1.3616418054
H -0.1735244491 1.300676208 1.6406708957
H 0.8540606331 2.1434389911 0.480424112
H -1.5295227857 2.1433904775 -0.2149202596
H -0.5294720837 1.2905510199 -1.3874956193
H -2.2129451104 0.0001545414 0.8046837553
H -2.586238499 9.38549e-05 -0.9216187497
H -1.529800969 -2.1432252326 -0.2145503167
H -0.5298274469 -1.2907717501 -1.3874490589
H -0.1731962391 -1.3011902357 1.6406335995
H 0.8541442258 -2.1434673984 0.4797883804
*
