! pbe def2-sv(p) def2/J RI DEFGRID1 loosescf d4 GCP(DFT/SV(P)) printgap
%output
    printlevel normal
end
* xyz 0 1
C -2.0573625971 -1.1819222598 -0.294115645
C -1.2775443373 -0.3420312604 0.7377940337
H -1.927924263 -0.2424754297 1.6133467969
C -0.9322977377 1.0842515776 0.2335849703
H -1.2741800623 1.2270012851 -0.7963984244
C 0.5882910489 1.2895784107 0.2423002412
H 0.9439338436 1.3597337266 1.2836527601
C 1.2646447621 0.077348003 -0.4104368747
H 0.8539266105 -0.0532989789 -1.4221420523
C 0.9722630552 -1.1894355132 0.423476727
H 1.8062974765 -1.3646260308 1.1150696027
O -0.1420752271 -1.0218483189 1.2665633196
O 0.8955153321 -2.3307975182 -0.3666269262
O 2.643249385 0.3532824037 -0.4793780853
O 0.883797647 2.4716529122 -0.4537972269
O -1.6177159085 2.0665945575 0.963127211
O -1.414074803 -1.307171929 -1.5467386203
H -3.0513953537 -0.744805748 -0.406298117
H -2.1555143915 -2.1944181473 0.1070026568
H 0.1484490507 -2.2429811287 -0.9915482016
H 3.0982053324 -0.3654969226 -0.9398554238
H 1.8437865692 2.5085237914 -0.5877683992
H -1.2290830264 2.1591198716 1.8447652066
H -1.6941264057 -0.5997417731 -2.141648936
*
