! wb97x-v def2-tzvp def2/J RIJCOSX DEFGRID2 scfconv7 GCP(DFT/TZ) printgap
%output
    printlevel normal
end
%cpcm
    smd true
    smdsolvent "water"
end
* xyz 0 1
C 1.4855199896333957 0.15034733386599963 1.1589934515953524
C 0.7272415665176817 -0.15007511206151705 -0.1045027197859773
C 1.3292956819922046 -0.6879701828769011 -1.1741507809649512
C -0.7272191863421312 0.1501545821422218 -0.10448674325774747
C -1.3292926996716852 0.6880973285854106 -1.174099779286511
C -1.4854840680176729 -0.1503364278585828 1.1590012830519958
H 1.3371723884792697 1.1912399120558947 1.4696545261998855
H 2.554795269291545 -0.02742432910218901 1.0228408838789138
H 1.1359296530547935 -0.4785800204495361 1.985971022167086
H 0.769966824500496 -0.950906876592881 -2.067022587100715
H 2.39716680013495 -0.8888712427723884 -1.1709786698863112
H -2.3971762492868245 0.8889354521682766 -1.1709118130943994
H -0.769999905099477 0.9510314085043678 -2.066994097709927
H -1.337124163564134 -1.191243001826794 1.4696094865578955
H -1.1358904976760837 0.47855313941923455 1.9860056636810113
H -2.554762483498924 0.027432577493080167 1.0228681930789691
*
