  12
        -28.67651291
 C          0.0005826034        1.4257992571       -0.0000760449
 C          0.7879998508        0.3272712952       -0.0000101345
 C          0.2051278900       -1.0061978692       -0.0001075094
 O          0.8225307409       -2.0568801142       -0.0000198733
 N         -1.1769793769       -0.9923990148        0.0000118244
 C         -2.0033726788        0.1065052700        0.0001207446
 O         -3.2146807246        0.0146997650        0.0000184105
 N         -1.3519126560        1.3126814556       -0.0000255103
 Cl         2.5104314297        0.4301461233        0.0000431910
 H          0.4166781827        2.4209206380       -0.0002081073
 H         -1.6383653728       -1.8983223949       -0.0000506400
 H         -1.9342173151        2.1441541026       -0.0001778219
