! wb97x-v def2-tzvp def2/J RIJCOSX DEFGRID2 scfconv7 GCP(DFT/TZ) printgap
%output
    printlevel normal
end
%cpcm
    smd true
    smdsolvent "water"
end
* xyz 0 1
C 2.3609822665402724 -0.654100045756342 0.17426357946136625
C 0.8698385482332756 -0.5037315949699841 0.4656641738507244
H 0.6911145951578503 -0.8514152294796148 1.4949940218234108
C 0.03078549242594904 -1.3948452462917929 -0.4595935366503837
C -1.4624365435717122 -1.3019659227238884 -0.1406926330129277
C -1.9473220956384572 0.14804542228675632 -0.1894180561336522
C -1.109972542746708 1.0297754249321973 0.7401234319268464
C 0.39332507221258567 0.9662473422966753 0.42042486129180634
H 0.9263562346042488 1.504413404563091 1.2174639237688694
C 0.7216232209129355 1.6724993379701267 -0.8983160060950927
H 2.960227438199715 0.02061693770441523 0.7966485654305497
H 2.6928947255327103 -1.6788980179742625 0.37441310432409514
H 2.588058501104732 -0.4345309669633421 -0.8748488565401347
H 0.200641912622328 -1.1005201746205422 -1.5045503942318543
H 0.373608005996473 -2.433461362094083 -0.36886477326708034
H -2.039356223812165 -1.922613176790755 -0.8367771707439775
H -1.6398637772121418 -1.7036227476440924 0.8672477905067061
H -1.8812897029127131 0.5206656755905433 -1.220259843279539
H -3.0044487618030833 0.2047750437191253 0.09655548977051062
H -1.453823912109676 2.070565215847136 0.691249340418023
H -1.2643679003135266 0.6909682442612393 1.7742545523607853
H 1.8021680768124941 1.7644747149085975 -1.0445141273010776
H 0.30208053299091103 2.6847084047873526 -0.8985473674052158
H 0.313340113325154 1.146421701912337 -1.766697611542951
*
