! wb97x-v def2-tzvp def2/J RIJCOSX DEFGRID2 scfconv7 GCP(DFT/TZ) printgap
%output
    printlevel normal
end
* xyz 0 1
C 0.8309813333409429 -1.846400614315895 8.334310246774154e-05
C 1.869283626387273 -0.9224421787859867 5.142756249213362e-05
C 1.5697997117631273 0.44014558800547826 8.672594816367606e-06
C 0.2458445941272974 0.8815109445806701 8.153941299968479e-07
C -0.7593833431941748 -0.07361675770691171 3.618751493073227e-05
C -0.5008870214064749 -1.4389699955732258 7.675191679157255e-05
Cl -2.435680071471366 0.47573598499420894 1.3802451206351847e-05
O 2.5442210204173388 1.4063367501660164 -2.2251723450038314e-05
H 1.0607984235037058 -2.9068570694026623 0.00011754712052053766
H 2.9049220599923413 -1.2481117832694457 6.797383678488313e-05
H 0.024562450781461583 1.9422383564512389 -3.131180780795131e-05
H -1.308188727106069 -2.160898444051156 0.00010771293850884661
H 3.413258736216347 0.9797736136482116 -3.141584207902981e-05
*
