! wb97x-v def2-tzvp def2/J RIJCOSX DEFGRID2 scfconv7 GCP(DFT/TZ) printgap
%output
    printlevel normal
end
* xyz 0 1
C -4.398400017297167 0.4995609805748793 0.15967233262646857
C -3.594936528773468 1.4932878096499358 0.7037386971038031
C -2.2117091495312673 1.3640187621389444 0.6701667921088347
C -1.590233981736743 0.2491830711174811 0.09406239985724682
C -2.4110022824086457 -0.7513724498846522 -0.440368278357689
C -3.7894789265835334 -0.6145723056623835 -0.4023036171335537
Cl -4.789198856446851 -1.8846191220925987 -1.091264559477823
C -0.12303654737858927 0.06799834633806444 0.029347420732686293
C 0.44580541982311206 -1.1009019276095238 0.5343295800844045
C 1.8165320140123642 -1.298489570504464 0.4477245182202787
C 2.6493363563298513 -0.3442149493427248 -0.1448161548096601
C 2.0594234064991657 0.8180098992669227 -0.6555075271156027
C 0.6916274221248985 1.0275363339650156 -0.5724679872516755
Cl 3.042775983077051 2.035825555514274 -1.424274204249908
Cl 4.359275026691585 -0.5943930831047171 -0.24768100905313709
Cl 2.4893484954909884 -2.767833442434368 1.1017907489857606
Cl -1.2565698333638091 2.6226410971505674 1.439886730792008
H -5.477296458346015 0.5975826987834757 0.1836037270028698
H -4.050917605848459 2.3626288095629104 1.1630550106603625
H -1.954230576012674 -1.6222169434012528 -0.8967214387438263
H -0.17581050975949175 -1.85302298880488 1.0061871544252896
H 0.264393311735664 1.9275298742356237 -0.9972044174641506
*
