! pbe def2-sv(p) def2/J RI DEFGRID1 loosescf d4 GCP(DFT/SV(P)) printgap
%output
    printlevel normal
end
* xyz 0 1
C -1.949173659 -0.1239261579 -0.0311730225
C -0.572311213 0.5277707071 0.0032878754
C 0.5475771928 -0.511964449 0.0065024768
N 1.8854046727 0.0912598523 -0.0326321687
H -2.0564996356 -0.7355001309 -0.9237918127
H -2.0920862511 -0.7602822429 0.839291132
H -2.7277360688 0.6344572665 -0.0360016844
H -0.4867658562 1.1513234217 0.8977121739
H -0.4508292028 1.1719097415 -0.8703042823
H 0.4323723521 -1.1583791631 0.8843525434
H 0.4458960888 -1.1479656024 -0.8819144043
H 2.4457614742 -0.2336843205 0.7449091224
H 1.8109400931 1.0983106048 0.0540137526
*
