! wb97x-v def2-tzvp def2/J RIJCOSX DEFGRID2 scfconv7 GCP(DFT/TZ) printgap
%output
    printlevel normal
end
%cpcm
    smd true
    smdsolvent "water"
end
* xyz 0 1
C -2.5810476764815347 -0.8710445303405494 0.36908342598177457
C -1.1523248228799732 -0.42596343374357587 0.6176997391566461
H -0.9997221921410061 -0.3549567081782503 1.707537461821131
C -0.8036195337838177 0.9146125142325239 -0.026266013673592346
H -0.9813281223789138 0.8482345355647049 -1.1111417775220407
C 0.6679240384569459 1.2430150159839022 0.21293436808936675
H 0.8300497164889753 1.3892643046275428 1.2887253206623448
C 1.5471720478485214 0.09799527988585384 -0.26922650299972467
H 1.4494226777863928 -0.005371881046805447 -1.3635954527060727
C 1.0863745715013953 -1.2125151811383073 0.3755266424477427
H 1.2247207457988383 -1.17307263411271 1.4663520869177762
O -0.2923855507463007 -1.4425668289463864 0.0707471838358746
O 1.821887885556807 -2.316469282703156 -0.08245793310318364
O 2.895971747844991 0.39236393617794996 0.09391852810354805
O 1.017055637393304 2.490842107754351 -0.39812005366772363
O -1.6468946369193607 1.9105636738005092 0.5570292379244248
O -2.9158967299467538 -0.938965251973423 -1.0215520386682777
H -3.264830665569641 -0.1500273087343137 0.8236337297326655
H -2.734704830570618 -1.8448626344780992 0.8532653291631088
H 1.82891416692828 -2.295145805650947 -1.0520683744989097
H 3.455198854008087 -0.30229887574482206 -0.27851317200632386
H 0.918464647180295 2.386808777508747 -1.3557897948186228
H -1.3342159405997567 2.766734199459528 0.23251591675572972
H -2.3505439695298254 -1.6124453518028898 -1.4223156407287028
*
