  21
        -22.15380406
 C          2.4841165233       -0.0000309027       -0.0798522825
 C          1.0143188991       -0.0000779770        0.3320022174
 C          0.3011542533        1.2493904912       -0.1875152541
 C         -1.1686176498        1.2520097964        0.2232297882
 C         -1.8705695694       -0.0000400276       -0.2938435545
 C         -1.1685795743       -1.2519479520        0.2234713977
 C          0.3010354578       -1.2493584402       -0.1877731026
 H          2.9891730111       -0.8826805971        0.3056896675
 H          2.5736818873        0.0004309488       -1.1642587466
 H          2.9894188588        0.8823972481        0.3061946267
 H          0.9584240025       -0.0001974614        1.4269913228
 H          0.7951469751        2.1432188602        0.1999642605
 H          0.3723941785        1.2746050567       -1.2776495199
 H         -1.2396233974        1.2817894040        1.3131525360
 H         -1.6612940358        2.1442733431       -0.1686012139
 H         -2.9153065461       -0.0000112660        0.0236020251
 H         -1.8516561067       -0.0001485855       -1.3861251857
 H         -1.2391462404       -1.2812231305        1.3134426445
 H         -1.6614428411       -2.1443611311       -0.1677818997
 H          0.7951329608       -2.1433520124        0.1991626444
 H          0.3718891176       -1.2740851077       -1.2779427296
  21
        -22.15136092
 C          1.9527234730        0.0000544997       -0.7616463463
 C          1.1124491130       -0.0000221648        0.5144299206
 C          0.2382515122        1.2538141017        0.6292497202
 C         -0.9171699258        1.2520593511       -0.3682600902
 C         -1.7711094755        0.0000831616       -0.1948520930
 C         -0.9173253641       -1.2520224362       -0.3681523197
 C          0.2383215185       -1.2539293496        0.6291216154
 H          2.5887083043        0.8820345547       -0.7916141169
 H          2.5888962318       -0.8818919966       -0.7914101954
 H          1.3297946723       -0.0002060495       -1.6508267732
 H          1.8099238472       -0.0000298564        1.3616418054
 H         -0.1735244491        1.3006762080        1.6406708957
 H          0.8540606331        2.1434389911        0.4804241120
 H         -1.5295227857        2.1433904775       -0.2149202596
 H         -0.5294720837        1.2905510199       -1.3874956193
 H         -2.2129451104        0.0001545414        0.8046837553
 H         -2.5862384990        0.0000938549       -0.9216187497
 H         -1.5298009690       -2.1432252326       -0.2145503167
 H         -0.5298274469       -1.2907717501       -1.3874490589
 H         -0.1731962391       -1.3011902357        1.6406335995
 H          0.8541442258       -2.1434673984        0.4797883804
  21
        -22.14972997
 C          2.5003789729        0.0000537452       -0.0711151439
 C          1.0148521705       -0.0000399770        0.3274646570
 C          0.2972383921        1.2473667955       -0.1938470907
 C         -1.1706226223        1.2516757261        0.2240337716
 C         -1.8764535765        0.0000298827       -0.2881862869
 C         -1.1707237573       -1.2516602986        0.2240444529
 C          0.2971460489       -1.2474410499       -0.1938692082
 H          3.1436734021        0.0096066170        0.8045225718
 H          2.7445553379       -0.8832578979       -0.6559618468
 H          2.7403008095        0.8738280605       -0.6718097959
 H          0.9365094765        0.0000573075        1.4203052669
 H          0.7917313774        2.1426041808        0.1899015184
 H          0.3625260137        1.2678210366       -1.2844809175
 H         -1.2357972435        1.2829539930        1.3143083799
 H         -1.6641886826        2.1441681533       -0.1662106038
 H         -2.9189579558        0.0000027352        0.0364861493
 H         -1.8650478290        0.0000307599       -1.3805484434
 H         -1.2358324960       -1.2828455739        1.3143489797
 H         -1.6643280131       -2.1441521227       -0.1661681181
 H          0.7914402311       -2.1428092995        0.1898681815
 H          0.3626332386       -1.2678270981       -1.2844914725
  21
        -22.14809861
 C          1.9512130963        0.0001676177       -0.7701387009
 C          1.1118778960       -0.0001811812        0.5187647158
 C          0.2331530874        1.2508374007        0.6380836299
 C         -0.9114865757        1.2485923151       -0.3713506029
 C         -1.7698620459        0.0000408167       -0.1990474118
 C         -0.9113970672       -1.2484675809       -0.3715038854
 C          0.2329150860       -1.2510085350        0.6382324587
 H          3.0134081450        0.0042198828       -0.5388734645
 H          1.7481811771       -0.8806078581       -1.3732296951
 H          1.7423533382        0.8770555549       -1.3768933268
 H          1.7984619659       -0.0004059400        1.3732388322
 H         -0.1883292269        1.2882033064        1.6458596999
 H          0.8481216483        2.1433335463        0.5034829036
 H         -1.5212983856        2.1441352357       -0.2338777339
 H         -0.5121573895        1.2712668875       -1.3870206553
 H         -2.2152979543       -0.0000227946        0.7987630088
 H         -2.5816490155        0.0000333319       -0.9293676140
 H         -1.5213065099       -2.1439970800       -0.2341491825
 H         -0.5118857854       -1.2710767214       -1.3871761510
 H         -0.1886081327       -1.2883027779        1.6460148871
 H          0.8477576176       -2.1436064035        0.5036502759
  21
        -22.14533372
 C          2.4661997832        0.0106760404        0.0720377174
 C          0.9644537600        0.0298402110        0.3435135034
 C          0.2749858445        1.1634441126       -0.4144881169
 C         -1.1836681076        1.3114426224        0.0361029324
 C         -1.7917273803       -0.0418744332        0.4260474290
 C         -1.1625264509       -1.1599955631       -0.3973577039
 C          0.3228417749       -1.3117872047       -0.0466357218
 H          2.9294806336        0.9326431811        0.4162413267
 H          2.9348905043       -0.8238542559        0.5887481349
 H          2.6583548716       -0.0924335371       -0.9940514339
 H          0.8142632797        0.2002088460        1.4150032947
 H          0.8075700173        2.1017698069       -0.2495880955
 H          0.3192988288        0.9464318636       -1.4835029941
 H         -1.2396838176        1.9892480663        0.8899467839
 H         -1.7635542198        1.7581367170       -0.7736480321
 H         -1.6149279560       -0.2423260254        1.4844554501
 H         -2.8718809272       -0.0209832347        0.2724392605
 H         -1.6826526330       -2.1018499704       -0.2147673079
 H         -1.2766509910       -0.9229024780       -1.4566382187
 H          0.4371748929       -2.0144747628        0.7811491620
 H          0.8525075780       -1.7304184908       -0.9048297917
  21
        -22.14526493
 C          2.3100489783       -0.1818832040       -0.4215627647
 C          1.0825929468        0.1034963373        0.4415076733
 C          0.2691893193        1.2617407731       -0.1558121715
 C         -1.1787912420        1.2054984282        0.3183455797
 C         -1.8817249795       -0.0327135692       -0.2527800973
 C         -0.8935012813       -1.1859965045       -0.4641496283
 C          0.2028328337       -1.1500742930        0.5948216076
 H          2.8939147435        0.7252420312       -0.5616461673
 H          2.9448433053       -0.9297106527        0.0484907068
 H          2.0103117887       -0.5512188296       -1.3999005496
 H          1.4307328329        0.4009273488        1.4370260488
 H          0.7227656750        2.2125601803        0.1300744026
 H          0.2882332247        1.2040990606       -1.2457918054
 H         -1.1897411071        1.1736310910        1.4095784861
 H         -1.7106978090        2.1077878529        0.0121886518
 H         -2.6735374137       -0.3441637056        0.4309877030
 H         -2.3525759103        0.2145628944       -1.2060373141
 H         -1.4234548391       -2.1391100326       -0.4227865474
 H         -0.4364170132       -1.1106718084       -1.4520590790
 H         -0.2646756322       -1.1596541188        1.5812564080
 H          0.8251101233       -2.0434284123        0.5191960400
