! wb97x-v def2-tzvp def2/J RIJCOSX DEFGRID2 scfconv7 GCP(DFT/TZ) printgap
%output
    printlevel normal
end
%cpcm
    smd true
    smdsolvent "water"
end
* xyz 0 1
C -1.959748181392826 0.6278599479661362 -0.00015997836565166681
C -1.9049374599041995 -0.7630044077796909 1.3503775296442808e-05
C -0.6674510191499904 -1.4066738781796675 0.00012063250531860592
C 0.4820450730913064 -0.6430865271904187 3.269194487906691e-05
C 0.4517498082569643 0.7517882947864893 -0.00014890884572589871
C -0.7897209599762417 1.3842741614014042 -0.00024142889846509743
O 1.6495525461639573 1.415075816530921 -0.000252970230235973
F 1.6950705803553514 -1.2543977791215757 0.00012410098035935398
H -2.9184168374319515 1.1356010041612405 -0.0002500250124210626
H -2.815904723685285 -1.350977806574381 7.01277180723178e-05
H -0.5851468971551966 -2.488419028118607 0.0002694260312544757
H -0.826349388768028 2.4701315776747776 -0.0004063969477185166
H 1.4757396247595587 2.3669603165849384 -0.00036539160092985087
*
