! wb97x-v def2-tzvp def2/J RIJCOSX DEFGRID2 scfconv7 GCP(DFT/TZ) printgap
%output
    printlevel normal
end
* xyz 0 1
C -1.7396365210992124 -0.8124954459857016 0.003618767837171763
C -0.4925090897527733 0.0037619342629756367 -0.33747091516231026
C -0.6468290173464387 1.4557080402401887 0.11121086877031164
C 0.7263406061149951 -0.6552016240683979 0.3022540455571569
O 1.9673287523206366 0.00038599499398532186 -0.018651737305928767
H -1.6546438809451807 -1.845263067227425 -0.35173306379676406
H -2.630831393234055 -0.37023192088535445 -0.4530345276629744
H -1.8979749300018243 -0.8393265685251098 1.088712546953388
H -0.3470462056357201 -0.018397547419342096 -1.4279425842735531
H 0.23356279561446947 2.05320937423281 -0.14286221195182114
H -0.7899050407692169 1.5065573695478256 1.1975058171707544
H -1.5165677506258493 1.9199980329459863 -0.3647835013399425
H 0.641183513462983 -0.6124123963465237 1.3949093352716027
H 0.7756725958673325 -1.713798392179356 0.007354049312004463
H 2.071783385277922 -0.04423650484997517 -0.9779227542045223
*
