! pbe def2-sv(p) def2/J RI DEFGRID1 loosescf d4 GCP(DFT/SV(P)) printgap
%output
    printlevel normal
end
* xyz 0 1
C -1.8303745836 -0.0841573234 -0.6255688563
C -0.8459152987 -0.0231315779 0.5392839639
C 0.156154943 -1.1799019161 0.5021852019
C 1.2115558483 -0.7254994116 -0.5041008209
C 1.3254940053 0.7915618801 -0.2931982359
C 0.0526556469 1.220293465 0.4616076265
H -1.3068702121 -0.0357836663 -1.5763557163
H -2.4027522694 -1.0086878715 -0.5916431738
H -2.5265719958 0.7502020133 -0.5750349496
H -1.4169904104 -0.032509425 1.4722336092
H 0.6110529931 -1.2999294669 1.4868639173
H -0.3082695687 -2.1237779283 0.2203180341
H 2.1641333578 -1.2317064284 -0.3537168632
H 0.8756335391 -0.9446064767 -1.5178564066
H 2.2109126203 1.0290377184 0.296215745
H 1.41738064 1.3119977199 -1.2457249748
H 0.3093970841 1.5527698406 1.4677798972
H -0.4561181949 2.042943163 -0.0389168502
*
