! pbe def2-sv(p) def2/J RI DEFGRID1 loosescf d4 GCP(DFT/SV(P)) printgap
%output
    printlevel normal
end
* xyz 0 1
C -2.245952742 -0.9943808643 -0.3593337874
C -1.1508114835 -0.2310295561 0.3964078606
H -1.5988254983 0.2043098544 1.2990642809
C -0.5567997387 0.8918754615 -0.4699004274
H -0.3651007171 0.5096629045 -1.479487858
C 0.7747946629 1.3199422937 0.1757390323
H 0.6100803289 1.4942316546 1.2473126404
C 1.7758258749 0.1638429462 0.004474505
H 2.203598275 0.2009446713 -1.0033236228
C 1.0440568661 -1.1985323711 0.1282732323
H 1.6820304679 -1.8751096587 0.7136042653
O -0.1412595685 -1.1211686411 0.882715932
O 0.8264921618 -1.688330758 -1.1583997397
O 2.8709928705 0.250435829 0.8743027978
O 1.2544705213 2.5420884724 -0.3112376115
O -1.4544432575 1.9523354332 -0.6383073521
O -2.991684026 -1.8353804362 0.4851370021
H -1.7915445918 -1.5649709926 -1.178860746
H -2.9485753966 -0.2707587917 -0.7775569002
H 0.6572768816 -2.6423543061 -1.1390185091
H 2.5675132386 0.3652064966 1.7868129405
H 1.3672511252 2.4982636155 -1.2712698961
H -1.5152196737 2.4708265295 0.1776554367
H -2.3788465868 -2.4019616869 0.9763397413
*
