! pbe def2-sv(p) def2/J RI DEFGRID1 loosescf d4 GCP(DFT/SV(P)) printgap
%output
    printlevel normal
end
* xyz 0 1
C -2.3288170085 -0.879419828 -0.5529924241
C -1.0372569523 -0.5575807165 0.2156087012
H -1.1244951648 -0.9067354911 1.2585164118
C -0.7429302653 0.9636915172 0.2525188386
H -1.5583383381 1.4948801505 -0.2507303271
C 0.582724457 1.2551056478 -0.481190119
H 0.8263244343 2.3134344094 -0.33580053
C 1.7054284867 0.3867660458 0.1311049366
H 2.5857629505 0.4352549605 -0.5204233571
C 1.2599878791 -1.0921828509 0.1762341644
H 1.1958097103 -1.3928683397 1.2427683086
O -0.0028367967 -1.2828208412 -0.4289648029
O 2.1817016273 -1.8515119952 -0.5123024228
O 2.0085437904 0.7852926033 1.4488793811
O 0.4875347602 1.0737477391 -1.8683610852
O -0.7189340425 1.4602052284 1.5678608417
O -3.44402767 -0.1842423739 -0.068495115
H -2.4877531936 -1.9644699072 -0.5318173358
H -2.2067874081 -0.5667831858 -1.5922378175
H 1.8635659716 -2.7643909315 -0.5969067821
H 2.6247125689 1.5315586371 1.4375063134
H 0.3382806207 0.1324340928 -2.0499195922
H 0.1308935005 1.2196030632 1.9795922173
H -3.6314414449 -0.4527660859 0.8421304585
*
