! pbe def2-sv(p) def2/J RI DEFGRID1 loosescf d4 GCP(DFT/SV(P)) printgap
%output
    printlevel normal
end
* xyz 0 1
C -1.9561861584 -0.1491581222 -0.0016130437
C -0.5934245903 0.5313337002 0.017768125
C 0.5408106802 -0.4926691434 -0.0303839046
O 1.82318535 0.0943982105 0.0570664726
H -2.7489829729 0.5932112298 0.0270555925
H -2.0712491926 -0.7438660537 -0.9048035656
H -2.0662428553 -0.8061999117 0.8575331499
H -0.4863494756 1.128394808 0.9254407767
H -0.508462124 1.203264408 -0.8395324571
H 0.474531538 -1.1660550178 0.8279187663
H 0.462752654 -1.0955409066 -0.946051483
H 1.9410163298 0.7050286155 -0.6838450931
*
