! pbe def2-sv(p) def2/J RI DEFGRID1 loosescf d4 GCP(DFT/SV(P)) printgap
%output
    printlevel normal
end
* xyz 0 1
C -2.628273206 0.0381183756 -0.3731690049
O -1.3514220525 0.5409687265 0.0410994117
C -0.4503286664 -0.3029852018 0.4995530515
O -0.6133016327 -1.4955152859 0.6240021533
C 0.8431155277 0.4141901249 0.8312363522
Cl 1.8358668975 0.3479159008 -0.6601260871
H -3.3708942089 0.743272972 -0.0094394004
H -2.7904327442 -0.9553886622 0.0446185264
H -2.6466235583 -0.0065861734 -1.4612603003
H 1.3901617067 -0.1080259256 1.6127694942
H 0.6687525831 1.4617682178 1.0638355914
*
