! wb97x-v def2-tzvp def2/J RIJCOSX DEFGRID2 scfconv7 GCP(DFT/TZ) printgap
%output
    printlevel normal
end
%cpcm
    smd true
    smdsolvent "water"
end
* xyz 0 1
C -2.4063772349528545 -2.282420684613779e-05 -0.5356767641147587
C -1.3822453635424228 1.393211721810825e-05 0.6026494047577504
C -0.49786905503715867 -1.2580244840718922 0.582733839737707
C 0.49778012231731844 -1.2580626522954557 -0.5825086926094336
C 1.3821258750849696 8.521114241408285e-06 -0.6027100410518548
C 0.4978051272739328 1.2580948706148034 -0.5824796714784076
C -0.49785711889964845 1.2580409842634754 0.582745757422268
C 2.406677494999587 -5.372643798603489e-05 0.53524003212255
H -3.0495911796613657 -0.8854768437187392 -0.4787213187169532
H -3.0488470382816093 0.8860196332632779 -0.4794853187227478
H -1.9317084149192356 -0.0006550465782866294 -1.5218548869544797
H -1.945103985616152 2.4708935157832754e-05 1.5460866743472723
H 0.05173883429384377 -1.3199844554599591 1.530836510973901
H -1.1297158277695898 -2.1537306657108433 0.5298026554180868
H 1.1297124235546596 -2.1536976756621473 -0.5294184176087672
H -0.05184095429343009 -1.320274202397229 -1.5305829094779309
H 1.944650411599969 2.5484508358761498e-05 -1.5463467900828005
H 1.1297662679708897 2.1537074578254627 -0.5293383213593473
H -0.051801915760191775 1.32036178098465 -1.5305615254284564
H 0.05173349554509914 1.3200083325085443 1.5308605051070239
H -1.129712021773772 2.15374085037388 0.5297982504758479
H 3.049728458115807 -0.885615849574107 0.4781335297285351
H 1.9323800590167488 -0.0004896173107602242 1.5215992339400446
H 3.0492663773414943 0.8858782734708924 0.47868277525113095
*
