! wb97x-v def2-tzvp def2/J RIJCOSX DEFGRID2 scfconv7 GCP(DFT/TZ) printgap
%output
    printlevel normal
end
* xyz 0 1
C -1.578344825677091 -0.06739563309325809 0.5322894335396791
C -0.6543678372259006 0.4906454855262895 -0.5489327305689882
C 0.6805883567529329 -0.23760744560335514 -0.6392628504773502
N 1.4743331933712822 -0.07904666148846315 0.5962423579084475
H -1.1593308789003145 0.062345685639413166 1.5358950765085888
H -2.54864845049277 0.4395938532918528 0.5191121355306689
H -1.757862844193907 -1.138011140792191 0.37797753021587255
H -0.4737007698684837 1.5585305459160865 -0.37039087798628206
H -1.1502419148032559 0.41147092645072947 -1.5241499990247058
H 0.48912046071834714 -1.2955946234336524 -0.8862222949429788
H 1.2611132324758154 0.1800101449297666 -1.4693640308523934
H 2.3439248577244096 -0.5911544722692251 0.4822769580773987
H 0.9885696702779696 -0.5566706574674468 1.3500204429179719
*
