! pbe def2-sv(p) def2/J RI DEFGRID1 loosescf d4 GCP(DFT/SV(P)) printgap
%output
    printlevel normal
end
* xyz 0 1
C -2.4172713129 -1.1261064526 -0.294307057
C -1.0664899844 -0.6158199748 0.2362644737
H -1.0855593069 -0.6232991501 1.3397564285
C -0.7590732667 0.8089491384 -0.2542748367
H -0.7981958695 0.8217986132 -1.3496374684
C 0.6510654291 1.2453196099 0.1805494088
H 0.6762283949 1.3822583362 1.2752662539
C 1.6933862449 0.1810133405 -0.1718184358
H 1.8363472302 0.1776186887 -1.2610548789
C 1.2111264084 -1.2181611476 0.2578616937
H 1.1998017745 -1.2528767594 1.3692935793
O -0.0781164325 -1.5126107771 -0.226249953
O 2.0927280228 -2.1436105624 -0.2617857072
O 2.8860871634 0.5003573567 0.4943851069
O 1.0165464754 2.441594943 -0.4599126641
O -1.7216235581 1.7420432356 0.172904355
O -3.5104581252 -0.4517044932 0.264547591
H -2.5230680692 -2.177142449 -0.0182143321
H -2.4142092629 -1.0517313916 -1.3884696608
H 1.719034299 -3.0351652097 -0.1806494094
H 3.5777015613 -0.1174342547 0.2141835504
H 0.2934199146 3.0814399485 -0.3621840144
H -1.7142936868 1.7995909039 1.1407845733
H -3.4535528794 0.4878181037 0.0215709682
*
