! pbe def2-sv(p) def2/J RI DEFGRID1 loosescf d4 GCP(DFT/SV(P)) printgap
%output
    printlevel normal
end
* xyz 0 1
C 2.5800617358 2.6633765051 1.0111389431
C 2.3425738217 1.7208921168 -0.1667172977
C 3.158345704 0.410197714 -0.0328151198
C 2.094299266 -0.6395223344 0.0696540852
C 2.1772639725 -2.0081914478 0.2123107649
C 0.9996061621 -2.7371672643 0.2793387244
C -0.2373372148 -2.1156950706 0.2054118821
C -0.3277472609 -0.7371474873 0.0623056971
C 0.8575388763 -0.0071353906 -0.0050861435
O 0.9374630662 1.3356133454 -0.144463172
O -1.4927080771 0.0183965379 -0.0278323403
C -2.7529343241 -0.4715714025 0.0455872775
O -3.0591461532 -1.6410806957 0.1993450564
N -3.619577925 0.5405977944 -0.0777431028
C -5.0533075503 0.3649486645 -0.0469560196
C 2.6064999409 2.4255026452 -1.4953169625
H 3.6154392369 2.9898542541 1.0213933445
H 1.9320040306 3.5312701605 0.9248597642
H 2.3533855102 2.1547488463 1.9452796331
H 3.7942575935 0.24637596 -0.9032063828
H 3.7906564684 0.423818934 0.8551595176
H 3.1354559106 -2.4987004972 0.270218664
H 1.0352908099 -3.8088792224 0.3908865776
H -1.140750566 -2.6997441729 0.2603445989
H -3.2423580613 1.4681768505 -0.2011301009
H -5.2560468678 -0.69469392 0.0950736573
H -5.4936909023 0.6961420372 -0.9866838213
H -5.484041912 0.9310003586 0.7780241759
H 3.6434065298 2.7432211608 -1.5459012944
H 1.9609458874 3.2948017073 -1.5861159478
H 2.3956148084 1.7510025129 -2.321922541
*
