! pbe def2-sv(p) def2/J RI DEFGRID1 loosescf d4 GCP(DFT/SV(P)) printgap
%output
    printlevel normal
end
* xyz 0 1
C 2.1855665103 1.0365069796 -0.4085562668
C 1.1659096245 -0.0804270026 -0.2458254825
C 1.610966213 -1.1306737448 0.7653229264
O -0.0599358922 0.5377391769 0.2089566928
C -1.2166724929 -0.036335427 -0.0852677011
O -1.3166655551 -1.0624143002 -0.7283408476
C -2.3721184417 0.7422098722 0.4715249834
H 3.1200806283 0.624376469 -0.7745525916
H 1.8219859419 1.7776426862 -1.1147975004
H 2.3552104669 1.5192768457 0.54957368
H 0.9531487772 -0.5625065069 -1.2089998915
H 1.7644521471 -0.6684945978 1.736900308
H 2.5381925878 -1.585980029 0.4330688746
H 0.8525177768 -1.9054056787 0.8556135267
H -3.3044353684 0.310519771 0.1232195063
H -2.2897650115 1.7801471754 0.1625314365
H -2.3288300818 0.7079186078 1.5571014977
*
