! r2scan-3c def2/J RI DEFGRID2 scfconv6 printgap
%output
    printlevel normal
end
%cpcm
    smd true
    smdsolvent "water"
end
* xyz 0 1
C 1.6546309181 -1.2405624253 0.011072126
C 0.9508996919 0.0223661752 -0.4734023884
H 0.9403254487 0.0765375579 -1.5677991405
C -0.5225398878 -0.0094620911 -0.0313493759
F -1.1790609332 -1.0853651883 -0.5010137934
F -0.6574360055 -0.0410297873 1.3075998767
F -1.2136883586 1.0644219734 -0.4502071386
O 1.5433135222 1.2093716782 -0.0349655801
H 1.60052044 -1.3115761987 1.0953417134
H 2.6953206608 -1.2039176194 -0.2951450983
H 1.1862858745 -2.1184861896 -0.4236433085
H 1.7509452532 1.1576801268 0.9117188495
*
