! wb97x-v def2-tzvp def2/J RIJCOSX DEFGRID2 scfconv7 GCP(DFT/TZ) printgap
%output
    printlevel normal
end
* xyz 0 1
C -2.5122326353036892 0.21611963359629924 0.014845990449511876
O -1.0655360156757463 0.38202615088335495 0.009476535541086078
C -0.3615737730149396 -0.7432143457557245 -0.018191585423290572
O -0.838619504945732 -1.8643807229913139 -0.03833122356538352
C 1.1367521444348307 -0.5760814934686493 -0.02874978905164236
Cl 1.752123928722623 1.1261838349766273 0.028803467434156873
H -2.830109086481231 -0.28584798646493326 -0.9012438452769368
H -2.912954823751488 1.227279070026868 0.059354274966890205
H -2.816722552080855 -0.3594714064608986 0.8912055789633013
H 1.5211101360972679 -1.0396577400749198 -0.9403910240053449
H 1.5423132172473168 -1.1080848610359912 0.8347919192473242
*
