! r2scan-3c def2/J RI DEFGRID2 scfconv6 printgap
%output
    printlevel normal
end
%cpcm
    smd true
    smdsolvent "water"
end
* xyz 0 1
C -3.4243376939 0.5776696194 0.0775181527
C -1.9294418504 0.4900651852 0.0825687988
C -1.1397617673 1.4980802743 -0.2601873388
C 0.3551836116 1.4409665824 -0.2879076155
C 0.85601927 -0.0078533399 -0.2680317247
H 0.5698085266 -0.4694099706 -1.2198750653
C 0.1153371134 -0.7539235638 0.8430707136
C -1.3678070693 -0.8579020269 0.4776507966
H -1.9311249016 -1.229303058 1.3513824366
O -1.5891046526 -1.7423113553 -0.6153279846
C 2.3567896814 -0.0700820272 -0.1354507425
C 3.1205728287 -0.354836235 -1.1792875292
C 2.9421076321 0.2120948636 1.2151292855
H -3.8299255696 -0.2163548788 -0.5477762066
H -3.7570638599 1.5383905554 -0.3045364713
H -3.8142541296 0.4426285461 1.0860003069
H -1.577441883 2.4496046979 -0.5319437012
H 0.7249169683 1.9485534647 -1.1818096787
H 0.7442128818 1.9867028454 0.5776427052
H 0.5328364969 -1.7551271314 0.9717245882
H 0.202389363 -0.2149533165 1.7867368645
H -1.2606489288 -2.620308767 -0.3805626225
H 4.1950703226 -0.384949256 -1.1091979628
H 2.7028343419 -0.56861326 -2.1489377727
H 2.5421091329 1.1364030848 1.6262208252
H 2.6990032483 -0.5929967303 1.9066650914
H 4.0234736696 0.2966001646 1.1520886658
*
