! wb97x-v def2-tzvp def2/J RIJCOSX DEFGRID2 scfconv7 GCP(DFT/TZ) printgap
%output
    printlevel normal
end
* xyz 0 1
C 0.6459164606944519 -1.4221340608097468 1.3062931589634145e-06
C 0.5204152933911834 0.07390353958389863 -7.81369344006009e-06
C 1.5990758271480308 0.8762762160107016 -1.3635258518615968e-05
C -0.8170520753270215 0.6641250578324014 -1.9214259828896198e-05
C -1.9674891567625168 -0.021736995231559385 -2.7003934402207006e-05
H 0.15748295838725299 -1.856165687606322 0.8800601078621823
H 1.6950377772691712 -1.7255323657331365 -1.7752495384415775e-05
H 0.15744597535449048 -1.856179892973231 -0.8800296364884397
H 1.4927677281249943 1.9581831657135071 -3.0462628062599997e-06
H 2.606579484376512 0.4703191305110335 4.656901643812507e-07
H -0.84962902544065 1.7533125282950162 -2.0091522336762708e-05
H -2.921715105536024 0.49634628987635376 2.810459874820904e-06
H -1.995528945809182 -1.1077197674123465 7.650525335515152e-06
*
