! wb97x-v def2-tzvp def2/J RIJCOSX DEFGRID2 scfconv7 GCP(DFT/TZ) printgap
%output
    printlevel normal
end
* xyz 0 1
C 1.338092775903727 -1.1583678355342346 0.32456534706913936
C 0.4588723496072984 -0.16448557068119796 -0.45077131083731736
C 0.8899784055618498 1.2727838622749441 -0.17843877656327353
C -0.9889291699718606 -0.43496943031237334 -0.14968672187618148
C -1.8833608150447856 0.4306754550470771 0.32682199814782775
H 1.2436986504068253 -0.9905731963320704 1.4034384569367513
H 2.390936571205583 -1.0364343045444595 0.04999317832263748
H 1.0486612123379166 -2.193324136429645 0.114549328958812
H 0.6039172536141446 -0.37381161726368073 -1.5217659633323177
H 0.76584355128379 1.524292954420856 0.8810367413734816
H 1.9462009441129489 1.4043478930750402 -0.43212688865039117
H 0.3094274286020126 1.9899523747122794 -0.7677067519807413
H -1.3073911920865569 -1.4611097062459741 -0.33917456782399424
H -2.9075937053647345 0.12219721273337673 0.5189533452424058
H -1.6349260001188346 1.4667715120375873 0.5392794232365511
*
